
---------- Begin Simulation Statistics ----------
sim_seconds                                  0.015267                       # Number of seconds simulated
sim_ticks                                 15267344125                       # Number of ticks simulated
final_tick                               671763141500                       # Number of ticks from beginning of simulation (restored from checkpoints and never reset)
sim_freq                                 1000000000000                       # Frequency of simulated ticks
host_inst_rate                               10460338                       # Simulator instruction rate (inst/s)
host_op_rate                                 19773623                       # Simulator op (including micro ops) rate (op/s)
host_tick_rate                              108516544                       # Simulator tick rate (ticks/s)
host_mem_usage                                3402992                       # Number of bytes of host memory used
host_seconds                                   140.69                       # Real time elapsed on the host
sim_insts                                  1471679348                       # Number of instructions simulated
sim_ops                                    2781978493                       # Number of ops (including micro ops) simulated
system.voltage_domain.voltage                       1                       # Voltage in Volts
system.clk_domain.clock                          1000                       # Clock period in ticks
system.mem_ctrls.pwrStateResidencyTicks::UNDEFINED  15267344125                       # Cumulative time (in ticks) in various power states
system.mem_ctrls.bytes_read::cpu0.inst           3328                       # Number of bytes read from this memory
system.mem_ctrls.bytes_read::cpu0.data       15156608                       # Number of bytes read from this memory
system.mem_ctrls.bytes_read::total           15159936                       # Number of bytes read from this memory
system.mem_ctrls.bytes_inst_read::cpu0.inst         3328                       # Number of instructions bytes read from this memory
system.mem_ctrls.bytes_inst_read::total          3328                       # Number of instructions bytes read from this memory
system.mem_ctrls.bytes_written::writebacks      6651328                       # Number of bytes written to this memory
system.mem_ctrls.bytes_written::total         6651328                       # Number of bytes written to this memory
system.mem_ctrls.num_reads::cpu0.inst              52                       # Number of read requests responded to by this memory
system.mem_ctrls.num_reads::cpu0.data          236822                       # Number of read requests responded to by this memory
system.mem_ctrls.num_reads::total              236874                       # Number of read requests responded to by this memory
system.mem_ctrls.num_writes::writebacks        103927                       # Number of write requests responded to by this memory
system.mem_ctrls.num_writes::total             103927                       # Number of write requests responded to by this memory
system.mem_ctrls.bw_read::cpu0.inst            217982                       # Total read bandwidth from this memory (bytes/s)
system.mem_ctrls.bw_read::cpu0.data         992746864                       # Total read bandwidth from this memory (bytes/s)
system.mem_ctrls.bw_read::total             992964845                       # Total read bandwidth from this memory (bytes/s)
system.mem_ctrls.bw_inst_read::cpu0.inst       217982                       # Instruction read bandwidth from this memory (bytes/s)
system.mem_ctrls.bw_inst_read::total           217982                       # Instruction read bandwidth from this memory (bytes/s)
system.mem_ctrls.bw_write::writebacks       435657174                       # Write bandwidth from this memory (bytes/s)
system.mem_ctrls.bw_write::total            435657174                       # Write bandwidth from this memory (bytes/s)
system.mem_ctrls.bw_total::writebacks       435657174                       # Total bandwidth to/from this memory (bytes/s)
system.mem_ctrls.bw_total::cpu0.inst           217982                       # Total bandwidth to/from this memory (bytes/s)
system.mem_ctrls.bw_total::cpu0.data        992746864                       # Total bandwidth to/from this memory (bytes/s)
system.mem_ctrls.bw_total::total           1428622020                       # Total bandwidth to/from this memory (bytes/s)
system.mem_ctrls.readReqs                      236874                       # Number of read requests accepted
system.mem_ctrls.writeReqs                     103927                       # Number of write requests accepted
system.mem_ctrls.readBursts                    236874                       # Number of DRAM read bursts, including those serviced by the write queue
system.mem_ctrls.writeBursts                   103927                       # Number of DRAM write bursts, including those merged in the write queue
system.mem_ctrls.bytesReadDRAM               15159936                       # Total number of bytes read from DRAM
system.mem_ctrls.bytesReadWrQ                       0                       # Total number of bytes read from write queue
system.mem_ctrls.bytesWritten                 6651200                       # Total number of bytes written to DRAM
system.mem_ctrls.bytesReadSys                15159936                       # Total read bytes from the system interface side
system.mem_ctrls.bytesWrittenSys              6651328                       # Total written bytes from the system interface side
system.mem_ctrls.servicedByWrQ                      0                       # Number of DRAM read bursts serviced by the write queue
system.mem_ctrls.mergedWrBursts                     0                       # Number of DRAM write bursts merged with an existing one
system.mem_ctrls.neitherReadNorWriteReqs            0                       # Number of requests that are neither read nor write
system.mem_ctrls.perBankRdBursts::0             14734                       # Per bank write bursts
system.mem_ctrls.perBankRdBursts::1             14724                       # Per bank write bursts
system.mem_ctrls.perBankRdBursts::2             14789                       # Per bank write bursts
system.mem_ctrls.perBankRdBursts::3             14861                       # Per bank write bursts
system.mem_ctrls.perBankRdBursts::4             14863                       # Per bank write bursts
system.mem_ctrls.perBankRdBursts::5             14901                       # Per bank write bursts
system.mem_ctrls.perBankRdBursts::6             14939                       # Per bank write bursts
system.mem_ctrls.perBankRdBursts::7             14856                       # Per bank write bursts
system.mem_ctrls.perBankRdBursts::8             14849                       # Per bank write bursts
system.mem_ctrls.perBankRdBursts::9             14850                       # Per bank write bursts
system.mem_ctrls.perBankRdBursts::10            14849                       # Per bank write bursts
system.mem_ctrls.perBankRdBursts::11            14752                       # Per bank write bursts
system.mem_ctrls.perBankRdBursts::12            14730                       # Per bank write bursts
system.mem_ctrls.perBankRdBursts::13            14720                       # Per bank write bursts
system.mem_ctrls.perBankRdBursts::14            14731                       # Per bank write bursts
system.mem_ctrls.perBankRdBursts::15            14726                       # Per bank write bursts
system.mem_ctrls.perBankWrBursts::0              6530                       # Per bank write bursts
system.mem_ctrls.perBankWrBursts::1              6515                       # Per bank write bursts
system.mem_ctrls.perBankWrBursts::2              6479                       # Per bank write bursts
system.mem_ctrls.perBankWrBursts::3              6411                       # Per bank write bursts
system.mem_ctrls.perBankWrBursts::4              6400                       # Per bank write bursts
system.mem_ctrls.perBankWrBursts::5              6455                       # Per bank write bursts
system.mem_ctrls.perBankWrBursts::6              6392                       # Per bank write bursts
system.mem_ctrls.perBankWrBursts::7              6436                       # Per bank write bursts
system.mem_ctrls.perBankWrBursts::8              6482                       # Per bank write bursts
system.mem_ctrls.perBankWrBursts::9              6513                       # Per bank write bursts
system.mem_ctrls.perBankWrBursts::10             6528                       # Per bank write bursts
system.mem_ctrls.perBankWrBursts::11             6551                       # Per bank write bursts
system.mem_ctrls.perBankWrBursts::12             6573                       # Per bank write bursts
system.mem_ctrls.perBankWrBursts::13             6529                       # Per bank write bursts
system.mem_ctrls.perBankWrBursts::14             6537                       # Per bank write bursts
system.mem_ctrls.perBankWrBursts::15             6594                       # Per bank write bursts
system.mem_ctrls.numRdRetry                         0                       # Number of times read queue was full causing retry
system.mem_ctrls.numWrRetry                         0                       # Number of times write queue was full causing retry
system.mem_ctrls.totGap                   15640583500                       # Total gap between requests
system.mem_ctrls.readPktSize::0                     0                       # Read request sizes (log2)
system.mem_ctrls.readPktSize::1                     0                       # Read request sizes (log2)
system.mem_ctrls.readPktSize::2                     0                       # Read request sizes (log2)
system.mem_ctrls.readPktSize::3                     0                       # Read request sizes (log2)
system.mem_ctrls.readPktSize::4                     0                       # Read request sizes (log2)
system.mem_ctrls.readPktSize::5                     0                       # Read request sizes (log2)
system.mem_ctrls.readPktSize::6                236874                       # Read request sizes (log2)
system.mem_ctrls.writePktSize::0                    0                       # Write request sizes (log2)
system.mem_ctrls.writePktSize::1                    0                       # Write request sizes (log2)
system.mem_ctrls.writePktSize::2                    0                       # Write request sizes (log2)
system.mem_ctrls.writePktSize::3                    0                       # Write request sizes (log2)
system.mem_ctrls.writePktSize::4                    0                       # Write request sizes (log2)
system.mem_ctrls.writePktSize::5                    0                       # Write request sizes (log2)
system.mem_ctrls.writePktSize::6               103927                       # Write request sizes (log2)
system.mem_ctrls.rdQLenPdf::0                  124267                       # What read queue length does an incoming req see
system.mem_ctrls.rdQLenPdf::1                  112600                       # What read queue length does an incoming req see
system.mem_ctrls.rdQLenPdf::2                       5                       # What read queue length does an incoming req see
system.mem_ctrls.rdQLenPdf::3                       1                       # What read queue length does an incoming req see
system.mem_ctrls.rdQLenPdf::4                       1                       # What read queue length does an incoming req see
system.mem_ctrls.rdQLenPdf::5                       0                       # What read queue length does an incoming req see
system.mem_ctrls.rdQLenPdf::6                       0                       # What read queue length does an incoming req see
system.mem_ctrls.rdQLenPdf::7                       0                       # What read queue length does an incoming req see
system.mem_ctrls.rdQLenPdf::8                       0                       # What read queue length does an incoming req see
system.mem_ctrls.rdQLenPdf::9                       0                       # What read queue length does an incoming req see
system.mem_ctrls.rdQLenPdf::10                      0                       # What read queue length does an incoming req see
system.mem_ctrls.rdQLenPdf::11                      0                       # What read queue length does an incoming req see
system.mem_ctrls.rdQLenPdf::12                      0                       # What read queue length does an incoming req see
system.mem_ctrls.rdQLenPdf::13                      0                       # What read queue length does an incoming req see
system.mem_ctrls.rdQLenPdf::14                      0                       # What read queue length does an incoming req see
system.mem_ctrls.rdQLenPdf::15                      0                       # What read queue length does an incoming req see
system.mem_ctrls.rdQLenPdf::16                      0                       # What read queue length does an incoming req see
system.mem_ctrls.rdQLenPdf::17                      0                       # What read queue length does an incoming req see
system.mem_ctrls.rdQLenPdf::18                      0                       # What read queue length does an incoming req see
system.mem_ctrls.rdQLenPdf::19                      0                       # What read queue length does an incoming req see
system.mem_ctrls.rdQLenPdf::20                      0                       # What read queue length does an incoming req see
system.mem_ctrls.rdQLenPdf::21                      0                       # What read queue length does an incoming req see
system.mem_ctrls.rdQLenPdf::22                      0                       # What read queue length does an incoming req see
system.mem_ctrls.rdQLenPdf::23                      0                       # What read queue length does an incoming req see
system.mem_ctrls.rdQLenPdf::24                      0                       # What read queue length does an incoming req see
system.mem_ctrls.rdQLenPdf::25                      0                       # What read queue length does an incoming req see
system.mem_ctrls.rdQLenPdf::26                      0                       # What read queue length does an incoming req see
system.mem_ctrls.rdQLenPdf::27                      0                       # What read queue length does an incoming req see
system.mem_ctrls.rdQLenPdf::28                      0                       # What read queue length does an incoming req see
system.mem_ctrls.rdQLenPdf::29                      0                       # What read queue length does an incoming req see
system.mem_ctrls.rdQLenPdf::30                      0                       # What read queue length does an incoming req see
system.mem_ctrls.rdQLenPdf::31                      0                       # What read queue length does an incoming req see
system.mem_ctrls.wrQLenPdf::0                       0                       # What write queue length does an incoming req see
system.mem_ctrls.wrQLenPdf::1                       0                       # What write queue length does an incoming req see
system.mem_ctrls.wrQLenPdf::2                       0                       # What write queue length does an incoming req see
system.mem_ctrls.wrQLenPdf::3                       0                       # What write queue length does an incoming req see
system.mem_ctrls.wrQLenPdf::4                       0                       # What write queue length does an incoming req see
system.mem_ctrls.wrQLenPdf::5                       0                       # What write queue length does an incoming req see
system.mem_ctrls.wrQLenPdf::6                       0                       # What write queue length does an incoming req see
system.mem_ctrls.wrQLenPdf::7                       0                       # What write queue length does an incoming req see
system.mem_ctrls.wrQLenPdf::8                       0                       # What write queue length does an incoming req see
system.mem_ctrls.wrQLenPdf::9                       0                       # What write queue length does an incoming req see
system.mem_ctrls.wrQLenPdf::10                      0                       # What write queue length does an incoming req see
system.mem_ctrls.wrQLenPdf::11                      0                       # What write queue length does an incoming req see
system.mem_ctrls.wrQLenPdf::12                      0                       # What write queue length does an incoming req see
system.mem_ctrls.wrQLenPdf::13                      0                       # What write queue length does an incoming req see
system.mem_ctrls.wrQLenPdf::14                      0                       # What write queue length does an incoming req see
system.mem_ctrls.wrQLenPdf::15                      8                       # What write queue length does an incoming req see
system.mem_ctrls.wrQLenPdf::16                      9                       # What write queue length does an incoming req see
system.mem_ctrls.wrQLenPdf::17                   2645                       # What write queue length does an incoming req see
system.mem_ctrls.wrQLenPdf::18                   6522                       # What write queue length does an incoming req see
system.mem_ctrls.wrQLenPdf::19                   6507                       # What write queue length does an incoming req see
system.mem_ctrls.wrQLenPdf::20                   6501                       # What write queue length does an incoming req see
system.mem_ctrls.wrQLenPdf::21                   6497                       # What write queue length does an incoming req see
system.mem_ctrls.wrQLenPdf::22                   6497                       # What write queue length does an incoming req see
system.mem_ctrls.wrQLenPdf::23                   6493                       # What write queue length does an incoming req see
system.mem_ctrls.wrQLenPdf::24                   6515                       # What write queue length does an incoming req see
system.mem_ctrls.wrQLenPdf::25                   6571                       # What write queue length does an incoming req see
system.mem_ctrls.wrQLenPdf::26                   6508                       # What write queue length does an incoming req see
system.mem_ctrls.wrQLenPdf::27                   6508                       # What write queue length does an incoming req see
system.mem_ctrls.wrQLenPdf::28                   7777                       # What write queue length does an incoming req see
system.mem_ctrls.wrQLenPdf::29                   8038                       # What write queue length does an incoming req see
system.mem_ctrls.wrQLenPdf::30                   6628                       # What write queue length does an incoming req see
system.mem_ctrls.wrQLenPdf::31                   6564                       # What write queue length does an incoming req see
system.mem_ctrls.wrQLenPdf::32                   7111                       # What write queue length does an incoming req see
system.mem_ctrls.wrQLenPdf::33                     28                       # What write queue length does an incoming req see
system.mem_ctrls.wrQLenPdf::34                      0                       # What write queue length does an incoming req see
system.mem_ctrls.wrQLenPdf::35                      0                       # What write queue length does an incoming req see
system.mem_ctrls.wrQLenPdf::36                      0                       # What write queue length does an incoming req see
system.mem_ctrls.wrQLenPdf::37                      0                       # What write queue length does an incoming req see
system.mem_ctrls.wrQLenPdf::38                      0                       # What write queue length does an incoming req see
system.mem_ctrls.wrQLenPdf::39                      0                       # What write queue length does an incoming req see
system.mem_ctrls.wrQLenPdf::40                      0                       # What write queue length does an incoming req see
system.mem_ctrls.wrQLenPdf::41                      0                       # What write queue length does an incoming req see
system.mem_ctrls.wrQLenPdf::42                      0                       # What write queue length does an incoming req see
system.mem_ctrls.wrQLenPdf::43                      0                       # What write queue length does an incoming req see
system.mem_ctrls.wrQLenPdf::44                      0                       # What write queue length does an incoming req see
system.mem_ctrls.wrQLenPdf::45                      0                       # What write queue length does an incoming req see
system.mem_ctrls.wrQLenPdf::46                      0                       # What write queue length does an incoming req see
system.mem_ctrls.wrQLenPdf::47                      0                       # What write queue length does an incoming req see
system.mem_ctrls.wrQLenPdf::48                      0                       # What write queue length does an incoming req see
system.mem_ctrls.wrQLenPdf::49                      0                       # What write queue length does an incoming req see
system.mem_ctrls.wrQLenPdf::50                      0                       # What write queue length does an incoming req see
system.mem_ctrls.wrQLenPdf::51                      0                       # What write queue length does an incoming req see
system.mem_ctrls.wrQLenPdf::52                      0                       # What write queue length does an incoming req see
system.mem_ctrls.wrQLenPdf::53                      0                       # What write queue length does an incoming req see
system.mem_ctrls.wrQLenPdf::54                      0                       # What write queue length does an incoming req see
system.mem_ctrls.wrQLenPdf::55                      0                       # What write queue length does an incoming req see
system.mem_ctrls.wrQLenPdf::56                      0                       # What write queue length does an incoming req see
system.mem_ctrls.wrQLenPdf::57                      0                       # What write queue length does an incoming req see
system.mem_ctrls.wrQLenPdf::58                      0                       # What write queue length does an incoming req see
system.mem_ctrls.wrQLenPdf::59                      0                       # What write queue length does an incoming req see
system.mem_ctrls.wrQLenPdf::60                      0                       # What write queue length does an incoming req see
system.mem_ctrls.wrQLenPdf::61                      0                       # What write queue length does an incoming req see
system.mem_ctrls.wrQLenPdf::62                      0                       # What write queue length does an incoming req see
system.mem_ctrls.wrQLenPdf::63                      0                       # What write queue length does an incoming req see
system.mem_ctrls.bytesPerActivate::samples        26715                       # Bytes accessed per row activation
system.mem_ctrls.bytesPerActivate::mean    816.399476                       # Bytes accessed per row activation
system.mem_ctrls.bytesPerActivate::gmean   695.936800                       # Bytes accessed per row activation
system.mem_ctrls.bytesPerActivate::stdev   318.638390                       # Bytes accessed per row activation
system.mem_ctrls.bytesPerActivate::0-127          753      2.82%      2.82% # Bytes accessed per row activation
system.mem_ctrls.bytesPerActivate::128-255         1734      6.49%      9.31% # Bytes accessed per row activation
system.mem_ctrls.bytesPerActivate::256-383         1417      5.30%     14.61% # Bytes accessed per row activation
system.mem_ctrls.bytesPerActivate::384-511         1310      4.90%     19.52% # Bytes accessed per row activation
system.mem_ctrls.bytesPerActivate::512-639         1287      4.82%     24.33% # Bytes accessed per row activation
system.mem_ctrls.bytesPerActivate::640-767         1118      4.18%     28.52% # Bytes accessed per row activation
system.mem_ctrls.bytesPerActivate::768-895         1132      4.24%     32.76% # Bytes accessed per row activation
system.mem_ctrls.bytesPerActivate::896-1023         1185      4.44%     37.19% # Bytes accessed per row activation
system.mem_ctrls.bytesPerActivate::1024-1151        16779     62.81%    100.00% # Bytes accessed per row activation
system.mem_ctrls.bytesPerActivate::total        26715                       # Bytes accessed per row activation
system.mem_ctrls.rdPerTurnAround::samples         6493                       # Reads before turning the bus around for writes
system.mem_ctrls.rdPerTurnAround::mean      20.247189                       # Reads before turning the bus around for writes
system.mem_ctrls.rdPerTurnAround::gmean     16.664420                       # Reads before turning the bus around for writes
system.mem_ctrls.rdPerTurnAround::stdev     92.583767                       # Reads before turning the bus around for writes
system.mem_ctrls.rdPerTurnAround::0-255          6468     99.61%     99.61% # Reads before turning the bus around for writes
system.mem_ctrls.rdPerTurnAround::256-511            9      0.14%     99.75% # Reads before turning the bus around for writes
system.mem_ctrls.rdPerTurnAround::512-767            8      0.12%     99.88% # Reads before turning the bus around for writes
system.mem_ctrls.rdPerTurnAround::768-1023            5      0.08%     99.95% # Reads before turning the bus around for writes
system.mem_ctrls.rdPerTurnAround::1024-1279            2      0.03%     99.98% # Reads before turning the bus around for writes
system.mem_ctrls.rdPerTurnAround::6656-6911            1      0.02%    100.00% # Reads before turning the bus around for writes
system.mem_ctrls.rdPerTurnAround::total          6493                       # Reads before turning the bus around for writes
system.mem_ctrls.wrPerTurnAround::samples         6493                       # Writes before turning the bus around for reads
system.mem_ctrls.wrPerTurnAround::mean      16.005698                       # Writes before turning the bus around for reads
system.mem_ctrls.wrPerTurnAround::gmean     16.005113                       # Writes before turning the bus around for reads
system.mem_ctrls.wrPerTurnAround::stdev      0.147264                       # Writes before turning the bus around for reads
system.mem_ctrls.wrPerTurnAround::16             6483     99.85%     99.85% # Writes before turning the bus around for reads
system.mem_ctrls.wrPerTurnAround::18                1      0.02%     99.86% # Writes before turning the bus around for reads
system.mem_ctrls.wrPerTurnAround::19                1      0.02%     99.88% # Writes before turning the bus around for reads
system.mem_ctrls.wrPerTurnAround::20                8      0.12%    100.00% # Writes before turning the bus around for reads
system.mem_ctrls.wrPerTurnAround::total          6493                       # Writes before turning the bus around for reads
system.mem_ctrls.totQLat                   3630177500                       # Total ticks spent queuing
system.mem_ctrls.totMemAccLat              8071565000                       # Total ticks spent from burst creation until serviced by the DRAM
system.mem_ctrls.totBusLat                 1184370000                       # Total ticks spent in databus transfers
system.mem_ctrls.avgQLat                     15325.35                       # Average queueing delay per DRAM burst
system.mem_ctrls.avgBusLat                    5000.00                       # Average bus latency per DRAM burst
system.mem_ctrls.avgMemAccLat                34075.35                       # Average memory access latency per DRAM burst
system.mem_ctrls.avgRdBW                       992.96                       # Average DRAM read bandwidth in MiByte/s
system.mem_ctrls.avgWrBW                       435.65                       # Average achieved write bandwidth in MiByte/s
system.mem_ctrls.avgRdBWSys                    992.96                       # Average system read bandwidth in MiByte/s
system.mem_ctrls.avgWrBWSys                    435.66                       # Average system write bandwidth in MiByte/s
system.mem_ctrls.peakBW                      12800.00                       # Theoretical peak bandwidth in MiByte/s
system.mem_ctrls.busUtil                        11.16                       # Data bus utilization in percentage
system.mem_ctrls.busUtilRead                     7.76                       # Data bus utilization in percentage for reads
system.mem_ctrls.busUtilWrite                    3.40                       # Data bus utilization in percentage for writes
system.mem_ctrls.avgRdQLen                       1.78                       # Average read queue length when enqueuing
system.mem_ctrls.avgWrQLen                      26.61                       # Average write queue length when enqueuing
system.mem_ctrls.readRowHits                   219848                       # Number of row buffer hits during reads
system.mem_ctrls.writeRowHits                   94234                       # Number of row buffer hits during writes
system.mem_ctrls.readRowHitRate                 92.81                       # Row buffer hit rate for reads
system.mem_ctrls.writeRowHitRate                90.67                       # Row buffer hit rate for writes
system.mem_ctrls.avgGap                      45893.60                       # Average gap between requests
system.mem_ctrls.pageHitRate                    92.16                       # Row buffer hit rate, read and write combined
system.mem_ctrls_0.actEnergy                 95590320                       # Energy for activate commands per rank (pJ)
system.mem_ctrls_0.preEnergy                 50807460                       # Energy for precharge commands per rank (pJ)
system.mem_ctrls_0.readEnergy               847282380                       # Energy for read commands per rank (pJ)
system.mem_ctrls_0.writeEnergy              269445960                       # Energy for write commands per rank (pJ)
system.mem_ctrls_0.refreshEnergy         704992080.000000                       # Energy for refresh commands per rank (pJ)
system.mem_ctrls_0.actBackEnergy           1481842680                       # Energy for active background per rank (pJ)
system.mem_ctrls_0.preBackEnergy             61641120                       # Energy for precharge background per rank (pJ)
system.mem_ctrls_0.actPowerDownEnergy      1555929570                       # Energy for active power-down per rank (pJ)
system.mem_ctrls_0.prePowerDownEnergy       439301760                       # Energy for precharge power-down per rank (pJ)
system.mem_ctrls_0.selfRefreshEnergy       1825693920                       # Energy for self refresh per rank (pJ)
system.mem_ctrls_0.totalEnergy             7332629430                       # Total energy per rank (pJ)
system.mem_ctrls_0.averagePower            480.281925                       # Core power per rank (mW)
system.mem_ctrls_0.totalIdleTime          11847722375                       # Total Idle time Per DRAM Rank
system.mem_ctrls_0.memoryStateTime::IDLE     62402250                       # Time in different power states
system.mem_ctrls_0.memoryStateTime::REF     299030000                       # Time in different power states
system.mem_ctrls_0.memoryStateTime::SREF   7300798625                       # Time in different power states
system.mem_ctrls_0.memoryStateTime::PRE_PDN   1144011250                       # Time in different power states
system.mem_ctrls_0.memoryStateTime::ACT    3048842500                       # Time in different power states
system.mem_ctrls_0.memoryStateTime::ACT_PDN   3412259500                       # Time in different power states
system.mem_ctrls_1.actEnergy                 95169060                       # Energy for activate commands per rank (pJ)
system.mem_ctrls_1.preEnergy                 50575965                       # Energy for precharge commands per rank (pJ)
system.mem_ctrls_1.readEnergy               843997980                       # Energy for read commands per rank (pJ)
system.mem_ctrls_1.writeEnergy              273042540                       # Energy for write commands per rank (pJ)
system.mem_ctrls_1.refreshEnergy         699460320.000000                       # Energy for refresh commands per rank (pJ)
system.mem_ctrls_1.actBackEnergy           1476310260                       # Energy for active background per rank (pJ)
system.mem_ctrls_1.preBackEnergy             63534720                       # Energy for precharge background per rank (pJ)
system.mem_ctrls_1.actPowerDownEnergy      1542151530                       # Energy for active power-down per rank (pJ)
system.mem_ctrls_1.prePowerDownEnergy       436977120                       # Energy for precharge power-down per rank (pJ)
system.mem_ctrls_1.selfRefreshEnergy       1833917760                       # Energy for self refresh per rank (pJ)
system.mem_ctrls_1.totalEnergy             7315137255                       # Total energy per rank (pJ)
system.mem_ctrls_1.averagePower            479.136200                       # Core power per rank (mW)
system.mem_ctrls_1.totalIdleTime          11864077625                       # Total Idle time Per DRAM Rank
system.mem_ctrls_1.memoryStateTime::IDLE     64199500                       # Time in different power states
system.mem_ctrls_1.memoryStateTime::REF     296660000                       # Time in different power states
system.mem_ctrls_1.memoryStateTime::SREF   7344490625                       # Time in different power states
system.mem_ctrls_1.memoryStateTime::PRE_PDN   1137961500                       # Time in different power states
system.mem_ctrls_1.memoryStateTime::ACT    3042373750                       # Time in different power states
system.mem_ctrls_1.memoryStateTime::ACT_PDN   3381658750                       # Time in different power states
system.pwrStateResidencyTicks::UNDEFINED  15267344125                       # Cumulative time (in ticks) in various power states
system.cpu0.branchPred.lookups                4804993                       # Number of BP lookups
system.cpu0.branchPred.condPredicted          4804993                       # Number of conditional branches predicted
system.cpu0.branchPred.condIncorrect             6605                       # Number of conditional branches incorrect
system.cpu0.branchPred.BTBLookups             4722307                       # Number of BTB lookups
system.cpu0.branchPred.BTBHits                      0                       # Number of BTB hits
system.cpu0.branchPred.BTBCorrect                   0                       # Number of correct BTB predictions (this stat may not work properly.
system.cpu0.branchPred.BTBHitPct             0.000000                       # BTB Hit Percentage
system.cpu0.branchPred.usedRAS                  41494                       # Number of times the RAS was used to get a target.
system.cpu0.branchPred.RASInCorrect               188                       # Number of incorrect RAS predictions.
system.cpu0.branchPred.indirectLookups        4722307                       # Number of indirect predictor lookups.
system.cpu0.branchPred.indirectHits           4449680                       # Number of indirect target hits.
system.cpu0.branchPred.indirectMisses          272627                       # Number of indirect misses.
system.cpu0.branchPredindirectMispredicted         1118                       # Number of mispredicted indirect branches.
system.cpu_voltage_domain.voltage                   1                       # Voltage in Volts
system.cpu_clk_domain.clock                       500                       # Clock period in ticks
system.cpu0.dtb.walker.pwrStateResidencyTicks::UNDEFINED  15267344125                       # Cumulative time (in ticks) in various power states
system.cpu0.dtb.rdAccesses                    5407377                       # TLB accesses on read requests
system.cpu0.dtb.wrAccesses                     617653                       # TLB accesses on write requests
system.cpu0.dtb.rdMisses                         3843                       # TLB misses on read requests
system.cpu0.dtb.wrMisses                          710                       # TLB misses on write requests
system.cpu0.apic_clk_domain.clock                8000                       # Clock period in ticks
system.cpu0.interrupts.pwrStateResidencyTicks::UNDEFINED  15267344125                       # Cumulative time (in ticks) in various power states
system.cpu0.itb.walker.pwrStateResidencyTicks::UNDEFINED  15267344125                       # Cumulative time (in ticks) in various power states
system.cpu0.itb.rdAccesses                          0                       # TLB accesses on read requests
system.cpu0.itb.wrAccesses                     888130                       # TLB accesses on write requests
system.cpu0.itb.rdMisses                            0                       # TLB misses on read requests
system.cpu0.itb.wrMisses                           13                       # TLB misses on write requests
system.cpu0.workload.numSyscalls                    7                       # Number of system calls
system.cpu0.pwrStateResidencyTicks::ON    15267344125                       # Cumulative time (in ticks) in various power states
system.cpu0.numCycles                        30534689                       # number of cpu cycles simulated
system.cpu0.numWorkItemsStarted                     0                       # number of work items this cpu started
system.cpu0.numWorkItemsCompleted                   0                       # number of work items this cpu completed
system.cpu0.fetch.icacheStallCycles            894981                       # Number of cycles fetch is stalled on an Icache miss
system.cpu0.fetch.Insts                      26857244                       # Number of instructions fetch has processed
system.cpu0.fetch.Branches                    4804993                       # Number of branches that fetch encountered
system.cpu0.fetch.predictedBranches           4491174                       # Number of branches that fetch has predicted taken
system.cpu0.fetch.Cycles                     29629703                       # Number of cycles fetch has run and was not squashing or blocked
system.cpu0.fetch.SquashCycles                  13280                       # Number of cycles fetch has spent squashing
system.cpu0.fetch.MiscStallCycles                  19                       # Number of cycles fetch has spent waiting on interrupts, or bad addresses, or out of MSHRs
system.cpu0.fetch.PendingTrapStallCycles           49                       # Number of stall cycles due to pending traps
system.cpu0.fetch.IcacheWaitRetryStallCycles           30                       # Number of stall cycles due to full MSHR
system.cpu0.fetch.CacheLines                   888121                       # Number of cache lines fetched
system.cpu0.fetch.IcacheSquashes                  597                       # Number of outstanding Icache misses that were squashed
system.cpu0.fetch.rateDist::samples          30531422                       # Number of instructions fetched each cycle (Total)
system.cpu0.fetch.rateDist::mean             1.549840                       # Number of instructions fetched each cycle (Total)
system.cpu0.fetch.rateDist::stdev            2.861527                       # Number of instructions fetched each cycle (Total)
system.cpu0.fetch.rateDist::underflows              0      0.00%      0.00% # Number of instructions fetched each cycle (Total)
system.cpu0.fetch.rateDist::0                20661856     67.67%     67.67% # Number of instructions fetched each cycle (Total)
system.cpu0.fetch.rateDist::1                 3106235     10.17%     77.85% # Number of instructions fetched each cycle (Total)
system.cpu0.fetch.rateDist::2                  684125      2.24%     80.09% # Number of instructions fetched each cycle (Total)
system.cpu0.fetch.rateDist::3                  451082      1.48%     81.57% # Number of instructions fetched each cycle (Total)
system.cpu0.fetch.rateDist::4                  276454      0.91%     82.47% # Number of instructions fetched each cycle (Total)
system.cpu0.fetch.rateDist::5                  325777      1.07%     83.54% # Number of instructions fetched each cycle (Total)
system.cpu0.fetch.rateDist::6                  486004      1.59%     85.13% # Number of instructions fetched each cycle (Total)
system.cpu0.fetch.rateDist::7                  478740      1.57%     86.70% # Number of instructions fetched each cycle (Total)
system.cpu0.fetch.rateDist::8                 4061149     13.30%    100.00% # Number of instructions fetched each cycle (Total)
system.cpu0.fetch.rateDist::overflows               0      0.00%    100.00% # Number of instructions fetched each cycle (Total)
system.cpu0.fetch.rateDist::min_value               0                       # Number of instructions fetched each cycle (Total)
system.cpu0.fetch.rateDist::max_value               8                       # Number of instructions fetched each cycle (Total)
system.cpu0.fetch.rateDist::total            30531422                       # Number of instructions fetched each cycle (Total)
system.cpu0.fetch.branchRate                 0.157362                       # Number of branch fetches per cycle
system.cpu0.fetch.rate                       0.879565                       # Number of inst fetches per cycle
system.cpu0.decode.IdleCycles                 1821597                       # Number of cycles decode is idle
system.cpu0.decode.BlockedCycles             22758805                       # Number of cycles decode is blocked
system.cpu0.decode.RunCycles                  2111205                       # Number of cycles decode is running
system.cpu0.decode.UnblockCycles              3833175                       # Number of cycles decode is unblocking
system.cpu0.decode.SquashCycles                  6640                       # Number of cycles decode is squashing
system.cpu0.decode.DecodedInsts              47103905                       # Number of instructions handled by decode
system.cpu0.rename.SquashCycles                  6640                       # Number of cycles rename is squashing
system.cpu0.rename.IdleCycles                 2908570                       # Number of cycles rename is idle
system.cpu0.rename.BlockCycles               16286961                       # Number of cycles rename is blocking
system.cpu0.rename.serializeStallCycles           744                       # count of cycles rename stalled for serializing inst
system.cpu0.rename.RunCycles                  4822848                       # Number of cycles rename is running
system.cpu0.rename.UnblockCycles              6505659                       # Number of cycles rename is unblocking
system.cpu0.rename.RenamedInsts              47087451                       # Number of instructions processed by rename
system.cpu0.rename.ROBFullEvents              1246575                       # Number of times rename has blocked due to ROB full
system.cpu0.rename.IQFullEvents               3325362                       # Number of times rename has blocked due to IQ full
system.cpu0.rename.SQFullEvents               1133491                       # Number of times rename has blocked due to SQ full
system.cpu0.rename.RenamedOperands           71824278                       # Number of destination operands rename has renamed
system.cpu0.rename.RenameLookups            107519847                       # Number of register rename lookups that rename has made
system.cpu0.rename.int_rename_lookups        57760067                       # Number of integer rename lookups
system.cpu0.rename.fp_rename_lookups          9719217                       # Number of floating rename lookups
system.cpu0.rename.CommittedMaps             71756901                       # Number of HB maps that are committed
system.cpu0.rename.UndoneMaps                   67265                       # Number of HB maps that are undone due to squashing
system.cpu0.rename.serializingInsts                33                       # count of serializing insts renamed
system.cpu0.rename.tempSerializingInsts            35                       # count of temporary serializing insts renamed
system.cpu0.rename.skidInsts                 15624941                       # count of insts added to the skid buffer
system.cpu0.memDep0.insertedLoads             5409788                       # Number of loads inserted to the mem dependence unit.
system.cpu0.memDep0.insertedStores             619263                       # Number of stores inserted to the mem dependence unit.
system.cpu0.memDep0.conflictingLoads            41029                       # Number of conflicting loads.
system.cpu0.memDep0.conflictingStores             296                       # Number of conflicting stores.
system.cpu0.iq.iqInstsAdded                  47075343                       # Number of instructions added to the IQ (excludes non-spec)
system.cpu0.iq.iqNonSpecInstsAdded                400                       # Number of non-speculative instructions added to the IQ
system.cpu0.iq.iqInstsIssued                 47061389                       # Number of instructions issued
system.cpu0.iq.iqSquashedInstsIssued              414                       # Number of squashed instructions issued
system.cpu0.iq.iqSquashedInstsExamined          50837                       # Number of squashed instructions iterated over during squash; mainly for profiling
system.cpu0.iq.iqSquashedOperandsExamined        70940                       # Number of squashed operands that are examined and possibly removed from graph
system.cpu0.iq.iqSquashedNonSpecRemoved           324                       # Number of squashed non-spec instructions that were removed
system.cpu0.iq.issued_per_cycle::samples     30531422                       # Number of insts issued each cycle
system.cpu0.iq.issued_per_cycle::mean        1.541408                       # Number of insts issued each cycle
system.cpu0.iq.issued_per_cycle::stdev       2.093307                       # Number of insts issued each cycle
system.cpu0.iq.issued_per_cycle::underflows            0      0.00%      0.00% # Number of insts issued each cycle
system.cpu0.iq.issued_per_cycle::0           16532220     54.15%     54.15% # Number of insts issued each cycle
system.cpu0.iq.issued_per_cycle::1            2922354      9.57%     63.72% # Number of insts issued each cycle
system.cpu0.iq.issued_per_cycle::2            2321572      7.60%     71.32% # Number of insts issued each cycle
system.cpu0.iq.issued_per_cycle::3            2992901      9.80%     81.13% # Number of insts issued each cycle
system.cpu0.iq.issued_per_cycle::4            1326005      4.34%     85.47% # Number of insts issued each cycle
system.cpu0.iq.issued_per_cycle::5            2076215      6.80%     92.27% # Number of insts issued each cycle
system.cpu0.iq.issued_per_cycle::6            1874304      6.14%     98.41% # Number of insts issued each cycle
system.cpu0.iq.issued_per_cycle::7             300539      0.98%     99.39% # Number of insts issued each cycle
system.cpu0.iq.issued_per_cycle::8             185312      0.61%    100.00% # Number of insts issued each cycle
system.cpu0.iq.issued_per_cycle::overflows            0      0.00%    100.00% # Number of insts issued each cycle
system.cpu0.iq.issued_per_cycle::min_value            0                       # Number of insts issued each cycle
system.cpu0.iq.issued_per_cycle::max_value            8                       # Number of insts issued each cycle
system.cpu0.iq.issued_per_cycle::total       30531422                       # Number of insts issued each cycle
system.cpu0.iq.fu_full::No_OpClass                  0      0.00%      0.00% # attempts to use FU when none available
system.cpu0.iq.fu_full::IntAlu                  45747     57.57%     57.57% # attempts to use FU when none available
system.cpu0.iq.fu_full::IntMult                     0      0.00%     57.57% # attempts to use FU when none available
system.cpu0.iq.fu_full::IntDiv                      0      0.00%     57.57% # attempts to use FU when none available
system.cpu0.iq.fu_full::FloatAdd                16325     20.54%     78.11% # attempts to use FU when none available
system.cpu0.iq.fu_full::FloatCmp                    0      0.00%     78.11% # attempts to use FU when none available
system.cpu0.iq.fu_full::FloatCvt                    0      0.00%     78.11% # attempts to use FU when none available
system.cpu0.iq.fu_full::FloatMult                   0      0.00%     78.11% # attempts to use FU when none available
system.cpu0.iq.fu_full::FloatMultAcc                0      0.00%     78.11% # attempts to use FU when none available
system.cpu0.iq.fu_full::FloatDiv                    0      0.00%     78.11% # attempts to use FU when none available
system.cpu0.iq.fu_full::FloatMisc                   0      0.00%     78.11% # attempts to use FU when none available
system.cpu0.iq.fu_full::FloatSqrt                   0      0.00%     78.11% # attempts to use FU when none available
system.cpu0.iq.fu_full::SimdAdd                     0      0.00%     78.11% # attempts to use FU when none available
system.cpu0.iq.fu_full::SimdAddAcc                  0      0.00%     78.11% # attempts to use FU when none available
system.cpu0.iq.fu_full::SimdAlu                     0      0.00%     78.11% # attempts to use FU when none available
system.cpu0.iq.fu_full::SimdCmp                     0      0.00%     78.11% # attempts to use FU when none available
system.cpu0.iq.fu_full::SimdCvt                     0      0.00%     78.11% # attempts to use FU when none available
system.cpu0.iq.fu_full::SimdMisc                    0      0.00%     78.11% # attempts to use FU when none available
system.cpu0.iq.fu_full::SimdMult                    0      0.00%     78.11% # attempts to use FU when none available
system.cpu0.iq.fu_full::SimdMultAcc                 0      0.00%     78.11% # attempts to use FU when none available
system.cpu0.iq.fu_full::SimdShift                   0      0.00%     78.11% # attempts to use FU when none available
system.cpu0.iq.fu_full::SimdShiftAcc                0      0.00%     78.11% # attempts to use FU when none available
system.cpu0.iq.fu_full::SimdSqrt                    0      0.00%     78.11% # attempts to use FU when none available
system.cpu0.iq.fu_full::SimdFloatAdd                0      0.00%     78.11% # attempts to use FU when none available
system.cpu0.iq.fu_full::SimdFloatAlu                0      0.00%     78.11% # attempts to use FU when none available
system.cpu0.iq.fu_full::SimdFloatCmp                0      0.00%     78.11% # attempts to use FU when none available
system.cpu0.iq.fu_full::SimdFloatCvt                0      0.00%     78.11% # attempts to use FU when none available
system.cpu0.iq.fu_full::SimdFloatDiv                0      0.00%     78.11% # attempts to use FU when none available
system.cpu0.iq.fu_full::SimdFloatMisc               0      0.00%     78.11% # attempts to use FU when none available
system.cpu0.iq.fu_full::SimdFloatMult               0      0.00%     78.11% # attempts to use FU when none available
system.cpu0.iq.fu_full::SimdFloatMultAcc            0      0.00%     78.11% # attempts to use FU when none available
system.cpu0.iq.fu_full::SimdFloatSqrt               0      0.00%     78.11% # attempts to use FU when none available
system.cpu0.iq.fu_full::MemRead                  1973      2.48%     80.59% # attempts to use FU when none available
system.cpu0.iq.fu_full::MemWrite                 1327      1.67%     82.26% # attempts to use FU when none available
system.cpu0.iq.fu_full::FloatMemRead            14052     17.68%     99.95% # attempts to use FU when none available
system.cpu0.iq.fu_full::FloatMemWrite              43      0.05%    100.00% # attempts to use FU when none available
system.cpu0.iq.fu_full::IprAccess                   0      0.00%    100.00% # attempts to use FU when none available
system.cpu0.iq.fu_full::InstPrefetch                0      0.00%    100.00% # attempts to use FU when none available
system.cpu0.iq.FU_type_0::No_OpClass            17659      0.04%      0.04% # Type of FU issued
system.cpu0.iq.FU_type_0::IntAlu             37975721     80.69%     80.73% # Type of FU issued
system.cpu0.iq.FU_type_0::IntMult                5156      0.01%     80.74% # Type of FU issued
system.cpu0.iq.FU_type_0::IntDiv                   62      0.00%     80.74% # Type of FU issued
system.cpu0.iq.FU_type_0::FloatAdd            3036870      6.45%     87.20% # Type of FU issued
system.cpu0.iq.FU_type_0::FloatCmp                  0      0.00%     87.20% # Type of FU issued
system.cpu0.iq.FU_type_0::FloatCvt                  0      0.00%     87.20% # Type of FU issued
system.cpu0.iq.FU_type_0::FloatMult                 0      0.00%     87.20% # Type of FU issued
system.cpu0.iq.FU_type_0::FloatMultAcc              0      0.00%     87.20% # Type of FU issued
system.cpu0.iq.FU_type_0::FloatDiv                  0      0.00%     87.20% # Type of FU issued
system.cpu0.iq.FU_type_0::FloatMisc                 0      0.00%     87.20% # Type of FU issued
system.cpu0.iq.FU_type_0::FloatSqrt                 0      0.00%     87.20% # Type of FU issued
system.cpu0.iq.FU_type_0::SimdAdd                   0      0.00%     87.20% # Type of FU issued
system.cpu0.iq.FU_type_0::SimdAddAcc                0      0.00%     87.20% # Type of FU issued
system.cpu0.iq.FU_type_0::SimdAlu                   0      0.00%     87.20% # Type of FU issued
system.cpu0.iq.FU_type_0::SimdCmp                   0      0.00%     87.20% # Type of FU issued
system.cpu0.iq.FU_type_0::SimdCvt                   0      0.00%     87.20% # Type of FU issued
system.cpu0.iq.FU_type_0::SimdMisc                  0      0.00%     87.20% # Type of FU issued
system.cpu0.iq.FU_type_0::SimdMult                  0      0.00%     87.20% # Type of FU issued
system.cpu0.iq.FU_type_0::SimdMultAcc               0      0.00%     87.20% # Type of FU issued
system.cpu0.iq.FU_type_0::SimdShift                 0      0.00%     87.20% # Type of FU issued
system.cpu0.iq.FU_type_0::SimdShiftAcc              0      0.00%     87.20% # Type of FU issued
system.cpu0.iq.FU_type_0::SimdSqrt                  0      0.00%     87.20% # Type of FU issued
system.cpu0.iq.FU_type_0::SimdFloatAdd              0      0.00%     87.20% # Type of FU issued
system.cpu0.iq.FU_type_0::SimdFloatAlu              0      0.00%     87.20% # Type of FU issued
system.cpu0.iq.FU_type_0::SimdFloatCmp              0      0.00%     87.20% # Type of FU issued
system.cpu0.iq.FU_type_0::SimdFloatCvt              0      0.00%     87.20% # Type of FU issued
system.cpu0.iq.FU_type_0::SimdFloatDiv              0      0.00%     87.20% # Type of FU issued
system.cpu0.iq.FU_type_0::SimdFloatMisc             0      0.00%     87.20% # Type of FU issued
system.cpu0.iq.FU_type_0::SimdFloatMult             0      0.00%     87.20% # Type of FU issued
system.cpu0.iq.FU_type_0::SimdFloatMultAcc            0      0.00%     87.20% # Type of FU issued
system.cpu0.iq.FU_type_0::SimdFloatSqrt             0      0.00%     87.20% # Type of FU issued
system.cpu0.iq.FU_type_0::MemRead             4369291      9.28%     96.48% # Type of FU issued
system.cpu0.iq.FU_type_0::MemWrite             342729      0.73%     97.21% # Type of FU issued
system.cpu0.iq.FU_type_0::FloatMemRead        1038651      2.21%     99.42% # Type of FU issued
system.cpu0.iq.FU_type_0::FloatMemWrite        275250      0.58%    100.00% # Type of FU issued
system.cpu0.iq.FU_type_0::IprAccess                 0      0.00%    100.00% # Type of FU issued
system.cpu0.iq.FU_type_0::InstPrefetch              0      0.00%    100.00% # Type of FU issued
system.cpu0.iq.FU_type_0::total              47061389                       # Type of FU issued
system.cpu0.iq.rate                          1.541243                       # Inst issue rate
system.cpu0.iq.fu_busy_cnt                      79467                       # FU busy when requested
system.cpu0.iq.fu_busy_rate                  0.001689                       # FU busy rate (busy events/executed inst)
system.cpu0.iq.int_inst_queue_reads         113865361                       # Number of integer instruction queue reads
system.cpu0.iq.int_inst_queue_writes         41709357                       # Number of integer instruction queue writes
system.cpu0.iq.int_inst_queue_wakeup_accesses     41639904                       # Number of integer instruction queue wakeup accesses
system.cpu0.iq.fp_inst_queue_reads           10868720                       # Number of floating instruction queue reads
system.cpu0.iq.fp_inst_queue_writes           5417257                       # Number of floating instruction queue writes
system.cpu0.iq.fp_inst_queue_wakeup_accesses      5411907                       # Number of floating instruction queue wakeup accesses
system.cpu0.iq.vec_inst_queue_reads                 0                       # Number of vector instruction queue reads
system.cpu0.iq.vec_inst_queue_writes                0                       # Number of vector instruction queue writes
system.cpu0.iq.vec_inst_queue_wakeup_accesses            0                       # Number of vector instruction queue wakeup accesses
system.cpu0.iq.int_alu_accesses              41666595                       # Number of integer alu accesses
system.cpu0.iq.fp_alu_accesses                5456602                       # Number of floating point alu accesses
system.cpu0.iq.vec_alu_accesses                     0                       # Number of vector alu accesses
system.cpu0.iew.lsq.thread0.forwLoads           41121                       # Number of loads that had data forwarded from stores
system.cpu0.iew.lsq.thread0.invAddrLoads            0                       # Number of loads ignored due to an invalid address
system.cpu0.iew.lsq.thread0.squashedLoads        15341                       # Number of loads squashed
system.cpu0.iew.lsq.thread0.ignoredResponses            8                       # Number of memory responses ignored because the instruction is squashed
system.cpu0.iew.lsq.thread0.memOrderViolation           38                       # Number of memory ordering violations
system.cpu0.iew.lsq.thread0.squashedStores         2903                       # Number of stores squashed
system.cpu0.iew.lsq.thread0.invAddrSwpfs            0                       # Number of software prefetches ignored due to an invalid address
system.cpu0.iew.lsq.thread0.blockedLoads            0                       # Number of blocked loads due to partial load-store forwarding
system.cpu0.iew.lsq.thread0.rescheduledLoads            5                       # Number of loads that were rescheduled
system.cpu0.iew.lsq.thread0.cacheBlocked           24                       # Number of times an access to memory failed due to the cache being blocked
system.cpu0.iew.iewIdleCycles                       0                       # Number of cycles IEW is idle
system.cpu0.iew.iewSquashCycles                  6640                       # Number of cycles IEW is squashing
system.cpu0.iew.iewBlockCycles               14639641                       # Number of cycles IEW is blocking
system.cpu0.iew.iewUnblockCycles               259902                       # Number of cycles IEW is unblocking
system.cpu0.iew.iewDispatchedInsts           47075743                       # Number of instructions dispatched to IQ
system.cpu0.iew.iewDispSquashedInsts               39                       # Number of squashed instructions skipped by dispatch
system.cpu0.iew.iewDispLoadInsts              5409788                       # Number of dispatched load instructions
system.cpu0.iew.iewDispStoreInsts              619263                       # Number of dispatched store instructions
system.cpu0.iew.iewDispNonSpecInsts               153                       # Number of dispatched non-speculative instructions
system.cpu0.iew.iewIQFullEvents                 41217                       # Number of times the IQ has become full, causing a stall
system.cpu0.iew.iewLSQFullEvents               218664                       # Number of times the LSQ has become full, causing a stall
system.cpu0.iew.memOrderViolationEvents            38                       # Number of memory order violations
system.cpu0.iew.predictedTakenIncorrect          5469                       # Number of branches that were predicted taken incorrectly
system.cpu0.iew.predictedNotTakenIncorrect         1512                       # Number of branches that were predicted not taken incorrectly
system.cpu0.iew.branchMispredicts                6981                       # Number of branch mispredicts detected at execute
system.cpu0.iew.iewExecutedInsts             47058184                       # Number of executed instructions
system.cpu0.iew.iewExecLoadInsts              5407359                       # Number of load instructions executed
system.cpu0.iew.iewExecSquashedInsts             3205                       # Number of squashed instructions skipped in execute
system.cpu0.iew.exec_swp                            0                       # number of swp insts executed
system.cpu0.iew.exec_nop                            0                       # number of nop insts executed
system.cpu0.iew.exec_refs                     6025008                       # number of memory reference insts executed
system.cpu0.iew.exec_branches                 4778883                       # Number of branches executed
system.cpu0.iew.exec_stores                    617649                       # Number of stores executed
system.cpu0.iew.exec_rate                    1.541138                       # Inst execution rate
system.cpu0.iew.wb_sent                      47052366                       # cumulative count of insts sent to commit
system.cpu0.iew.wb_count                     47051811                       # cumulative count of insts written-back
system.cpu0.iew.wb_producers                 38502980                       # num instructions producing a value
system.cpu0.iew.wb_consumers                 57500372                       # num instructions consuming a value
system.cpu0.iew.wb_rate                      1.540930                       # insts written-back per cycle
system.cpu0.iew.wb_fanout                    0.669613                       # average fanout of values written-back
system.cpu0.commit.commitSquashedInsts          50857                       # The number of squashed insts skipped by commit
system.cpu0.commit.commitNonSpecStalls             76                       # The number of times commit has been forced to stall to communicate backwards
system.cpu0.commit.branchMispredicts             6613                       # The number of times a branch was mispredicted
system.cpu0.commit.committed_per_cycle::samples     30519953                       # Number of insts commited each cycle
system.cpu0.commit.committed_per_cycle::mean     1.540792                       # Number of insts commited each cycle
system.cpu0.commit.committed_per_cycle::stdev     2.322179                       # Number of insts commited each cycle
system.cpu0.commit.committed_per_cycle::underflows            0      0.00%      0.00% # Number of insts commited each cycle
system.cpu0.commit.committed_per_cycle::0     19724872     64.63%     64.63% # Number of insts commited each cycle
system.cpu0.commit.committed_per_cycle::1      1218612      3.99%     68.62% # Number of insts commited each cycle
system.cpu0.commit.committed_per_cycle::2       165071      0.54%     69.16% # Number of insts commited each cycle
system.cpu0.commit.committed_per_cycle::3       534780      1.75%     70.92% # Number of insts commited each cycle
system.cpu0.commit.committed_per_cycle::4      3843362     12.59%     83.51% # Number of insts commited each cycle
system.cpu0.commit.committed_per_cycle::5      3845287     12.60%     96.11% # Number of insts commited each cycle
system.cpu0.commit.committed_per_cycle::6        82161      0.27%     96.38% # Number of insts commited each cycle
system.cpu0.commit.committed_per_cycle::7        67500      0.22%     96.60% # Number of insts commited each cycle
system.cpu0.commit.committed_per_cycle::8      1038308      3.40%    100.00% # Number of insts commited each cycle
system.cpu0.commit.committed_per_cycle::overflows            0      0.00%    100.00% # Number of insts commited each cycle
system.cpu0.commit.committed_per_cycle::min_value            0                       # Number of insts commited each cycle
system.cpu0.commit.committed_per_cycle::max_value            8                       # Number of insts commited each cycle
system.cpu0.commit.committed_per_cycle::total     30519953                       # Number of insts commited each cycle
system.cpu0.commit.committedInsts            26657244                       # Number of instructions committed
system.cpu0.commit.committedOps              47024907                       # Number of ops (including micro ops) committed
system.cpu0.commit.swp_count                        0                       # Number of s/w prefetches committed
system.cpu0.commit.refs                       6010813                       # Number of memory references committed
system.cpu0.commit.loads                      5394447                       # Number of loads committed
system.cpu0.commit.membars                         46                       # Number of memory barriers committed
system.cpu0.commit.branches                   4777150                       # Number of branches committed
system.cpu0.commit.vec_insts                        0                       # Number of committed Vector instructions.
system.cpu0.commit.fp_insts                   5410114                       # Number of committed floating point instructions.
system.cpu0.commit.int_insts                 43236531                       # Number of committed integer instructions.
system.cpu0.commit.function_calls               40966                       # Number of function calls committed.
system.cpu0.commit.op_class_0::No_OpClass        17214      0.04%      0.04% # Class of committed instruction
system.cpu0.commit.op_class_0::IntAlu        37955624     80.71%     80.75% # Class of committed instruction
system.cpu0.commit.op_class_0::IntMult           5149      0.01%     80.76% # Class of committed instruction
system.cpu0.commit.op_class_0::IntDiv              36      0.00%     80.76% # Class of committed instruction
system.cpu0.commit.op_class_0::FloatAdd       3036071      6.46%     87.22% # Class of committed instruction
system.cpu0.commit.op_class_0::FloatCmp             0      0.00%     87.22% # Class of committed instruction
system.cpu0.commit.op_class_0::FloatCvt             0      0.00%     87.22% # Class of committed instruction
system.cpu0.commit.op_class_0::FloatMult            0      0.00%     87.22% # Class of committed instruction
system.cpu0.commit.op_class_0::FloatMultAcc            0      0.00%     87.22% # Class of committed instruction
system.cpu0.commit.op_class_0::FloatDiv             0      0.00%     87.22% # Class of committed instruction
system.cpu0.commit.op_class_0::FloatMisc            0      0.00%     87.22% # Class of committed instruction
system.cpu0.commit.op_class_0::FloatSqrt            0      0.00%     87.22% # Class of committed instruction
system.cpu0.commit.op_class_0::SimdAdd              0      0.00%     87.22% # Class of committed instruction
system.cpu0.commit.op_class_0::SimdAddAcc            0      0.00%     87.22% # Class of committed instruction
system.cpu0.commit.op_class_0::SimdAlu              0      0.00%     87.22% # Class of committed instruction
system.cpu0.commit.op_class_0::SimdCmp              0      0.00%     87.22% # Class of committed instruction
system.cpu0.commit.op_class_0::SimdCvt              0      0.00%     87.22% # Class of committed instruction
system.cpu0.commit.op_class_0::SimdMisc             0      0.00%     87.22% # Class of committed instruction
system.cpu0.commit.op_class_0::SimdMult             0      0.00%     87.22% # Class of committed instruction
system.cpu0.commit.op_class_0::SimdMultAcc            0      0.00%     87.22% # Class of committed instruction
system.cpu0.commit.op_class_0::SimdShift            0      0.00%     87.22% # Class of committed instruction
system.cpu0.commit.op_class_0::SimdShiftAcc            0      0.00%     87.22% # Class of committed instruction
system.cpu0.commit.op_class_0::SimdSqrt             0      0.00%     87.22% # Class of committed instruction
system.cpu0.commit.op_class_0::SimdFloatAdd            0      0.00%     87.22% # Class of committed instruction
system.cpu0.commit.op_class_0::SimdFloatAlu            0      0.00%     87.22% # Class of committed instruction
system.cpu0.commit.op_class_0::SimdFloatCmp            0      0.00%     87.22% # Class of committed instruction
system.cpu0.commit.op_class_0::SimdFloatCvt            0      0.00%     87.22% # Class of committed instruction
system.cpu0.commit.op_class_0::SimdFloatDiv            0      0.00%     87.22% # Class of committed instruction
system.cpu0.commit.op_class_0::SimdFloatMisc            0      0.00%     87.22% # Class of committed instruction
system.cpu0.commit.op_class_0::SimdFloatMult            0      0.00%     87.22% # Class of committed instruction
system.cpu0.commit.op_class_0::SimdFloatMultAcc            0      0.00%     87.22% # Class of committed instruction
system.cpu0.commit.op_class_0::SimdFloatSqrt            0      0.00%     87.22% # Class of committed instruction
system.cpu0.commit.op_class_0::MemRead        4356312      9.26%     96.48% # Class of committed instruction
system.cpu0.commit.op_class_0::MemWrite        341295      0.73%     97.21% # Class of committed instruction
system.cpu0.commit.op_class_0::FloatMemRead      1038135      2.21%     99.42% # Class of committed instruction
system.cpu0.commit.op_class_0::FloatMemWrite       275071      0.58%    100.00% # Class of committed instruction
system.cpu0.commit.op_class_0::IprAccess            0      0.00%    100.00% # Class of committed instruction
system.cpu0.commit.op_class_0::InstPrefetch            0      0.00%    100.00% # Class of committed instruction
system.cpu0.commit.op_class_0::total         47024907                       # Class of committed instruction
system.cpu0.commit.bw_lim_events              1038308                       # number cycles where commit BW limit reached
system.cpu0.rob.rob_reads                    76557409                       # The number of ROB reads
system.cpu0.rob.rob_writes                   94163121                       # The number of ROB writes
system.cpu0.timesIdled                            132                       # Number of times that the entire CPU went into an idle state and unscheduled itself
system.cpu0.idleCycles                           3267                       # Total number of cycles that the CPU has spent unscheduled due to idling
system.cpu0.committedInsts                   26657244                       # Number of Instructions Simulated
system.cpu0.committedOps                     47024907                       # Number of Ops (including micro ops) Simulated
system.cpu0.cpi                              1.145456                       # CPI: Cycles Per Instruction
system.cpu0.cpi_total                        1.145456                       # CPI: Total CPI of All Threads
system.cpu0.ipc                              0.873015                       # IPC: Instructions Per Cycle
system.cpu0.ipc_total                        0.873015                       # IPC: Total IPC of All Threads
system.cpu0.int_regfile_reads                57712024                       # number of integer regfile reads
system.cpu0.int_regfile_writes               36712058                       # number of integer regfile writes
system.cpu0.fp_regfile_reads                  9715404                       # number of floating regfile reads
system.cpu0.fp_regfile_writes                 4688557                       # number of floating regfile writes
system.cpu0.cc_regfile_reads                 23879172                       # number of cc regfile reads
system.cpu0.cc_regfile_writes                30385026                       # number of cc regfile writes
system.cpu0.misc_regfile_reads               16130792                       # number of misc regfile reads
system.cpu0.dcache.tags.pwrStateResidencyTicks::UNDEFINED  15267344125                       # Cumulative time (in ticks) in various power states
system.cpu0.dcache.tags.replacements           281210                       # number of replacements
system.cpu0.dcache.tags.tagsinuse                 512                       # Cycle average of tags in use
system.cpu0.dcache.tags.total_refs            4008260                       # Total number of references to valid blocks.
system.cpu0.dcache.tags.sampled_refs           281210                       # Sample count of references to valid blocks.
system.cpu0.dcache.tags.avg_refs            14.253618                       # Average number of references to valid blocks.
system.cpu0.dcache.tags.warmup_cycle                0                       # Cycle when the warmup percentage was hit.
system.cpu0.dcache.tags.occ_blocks::cpu0.data          512                       # Average occupied blocks per requestor
system.cpu0.dcache.tags.occ_percent::cpu0.data            1                       # Average percentage of cache occupancy
system.cpu0.dcache.tags.occ_percent::total            1                       # Average percentage of cache occupancy
system.cpu0.dcache.tags.occ_task_id_blocks::1024          512                       # Occupied blocks per task id
system.cpu0.dcache.tags.age_task_id_blocks_1024::0          201                       # Occupied blocks per task id
system.cpu0.dcache.tags.age_task_id_blocks_1024::1          311                       # Occupied blocks per task id
system.cpu0.dcache.tags.occ_task_id_percent::1024            1                       # Percentage of cache occupancy per task id
system.cpu0.dcache.tags.tag_accesses         24211158                       # Number of tag accesses
system.cpu0.dcache.tags.data_accesses        24211158                       # Number of data accesses
system.cpu0.dcache.pwrStateResidencyTicks::UNDEFINED  15267344125                       # Cumulative time (in ticks) in various power states
system.cpu0.dcache.ReadReq_hits::cpu0.data      2342268                       # number of ReadReq hits
system.cpu0.dcache.ReadReq_hits::total        2342268                       # number of ReadReq hits
system.cpu0.dcache.WriteReq_hits::cpu0.data       573829                       # number of WriteReq hits
system.cpu0.dcache.WriteReq_hits::total        573829                       # number of WriteReq hits
system.cpu0.dcache.demand_hits::cpu0.data      2916097                       # number of demand (read+write) hits
system.cpu0.dcache.demand_hits::total         2916097                       # number of demand (read+write) hits
system.cpu0.dcache.overall_hits::cpu0.data      2916097                       # number of overall hits
system.cpu0.dcache.overall_hits::total        2916097                       # number of overall hits
system.cpu0.dcache.ReadReq_misses::cpu0.data      3023851                       # number of ReadReq misses
system.cpu0.dcache.ReadReq_misses::total      3023851                       # number of ReadReq misses
system.cpu0.dcache.WriteReq_misses::cpu0.data        42539                       # number of WriteReq misses
system.cpu0.dcache.WriteReq_misses::total        42539                       # number of WriteReq misses
system.cpu0.dcache.demand_misses::cpu0.data      3066390                       # number of demand (read+write) misses
system.cpu0.dcache.demand_misses::total       3066390                       # number of demand (read+write) misses
system.cpu0.dcache.overall_misses::cpu0.data      3066390                       # number of overall misses
system.cpu0.dcache.overall_misses::total      3066390                       # number of overall misses
system.cpu0.dcache.ReadReq_miss_latency::cpu0.data 218677771000                       # number of ReadReq miss cycles
system.cpu0.dcache.ReadReq_miss_latency::total 218677771000                       # number of ReadReq miss cycles
system.cpu0.dcache.WriteReq_miss_latency::cpu0.data    567695500                       # number of WriteReq miss cycles
system.cpu0.dcache.WriteReq_miss_latency::total    567695500                       # number of WriteReq miss cycles
system.cpu0.dcache.demand_miss_latency::cpu0.data 219245466500                       # number of demand (read+write) miss cycles
system.cpu0.dcache.demand_miss_latency::total 219245466500                       # number of demand (read+write) miss cycles
system.cpu0.dcache.overall_miss_latency::cpu0.data 219245466500                       # number of overall miss cycles
system.cpu0.dcache.overall_miss_latency::total 219245466500                       # number of overall miss cycles
system.cpu0.dcache.ReadReq_accesses::cpu0.data      5366119                       # number of ReadReq accesses(hits+misses)
system.cpu0.dcache.ReadReq_accesses::total      5366119                       # number of ReadReq accesses(hits+misses)
system.cpu0.dcache.WriteReq_accesses::cpu0.data       616368                       # number of WriteReq accesses(hits+misses)
system.cpu0.dcache.WriteReq_accesses::total       616368                       # number of WriteReq accesses(hits+misses)
system.cpu0.dcache.demand_accesses::cpu0.data      5982487                       # number of demand (read+write) accesses
system.cpu0.dcache.demand_accesses::total      5982487                       # number of demand (read+write) accesses
system.cpu0.dcache.overall_accesses::cpu0.data      5982487                       # number of overall (read+write) accesses
system.cpu0.dcache.overall_accesses::total      5982487                       # number of overall (read+write) accesses
system.cpu0.dcache.ReadReq_miss_rate::cpu0.data     0.563508                       # miss rate for ReadReq accesses
system.cpu0.dcache.ReadReq_miss_rate::total     0.563508                       # miss rate for ReadReq accesses
system.cpu0.dcache.WriteReq_miss_rate::cpu0.data     0.069016                       # miss rate for WriteReq accesses
system.cpu0.dcache.WriteReq_miss_rate::total     0.069016                       # miss rate for WriteReq accesses
system.cpu0.dcache.demand_miss_rate::cpu0.data     0.512561                       # miss rate for demand accesses
system.cpu0.dcache.demand_miss_rate::total     0.512561                       # miss rate for demand accesses
system.cpu0.dcache.overall_miss_rate::cpu0.data     0.512561                       # miss rate for overall accesses
system.cpu0.dcache.overall_miss_rate::total     0.512561                       # miss rate for overall accesses
system.cpu0.dcache.ReadReq_avg_miss_latency::cpu0.data 72317.640982                       # average ReadReq miss latency
system.cpu0.dcache.ReadReq_avg_miss_latency::total 72317.640982                       # average ReadReq miss latency
system.cpu0.dcache.WriteReq_avg_miss_latency::cpu0.data 13345.294906                       # average WriteReq miss latency
[...]
system.l2.demand_miss_rate::cpu0.data        0.842151                       # miss rate for demand accesses
system.l2.demand_miss_rate::total            0.841005                       # miss rate for demand accesses
system.l2.overall_miss_rate::cpu0.inst       0.116854                       # miss rate for overall accesses
system.l2.overall_miss_rate::cpu0.data       0.842151                       # miss rate for overall accesses
system.l2.overall_miss_rate::total           0.841005                       # miss rate for overall accesses
system.l2.ReadExReq_avg_miss_latency::cpu0.data 83922.500000                       # average ReadExReq miss latency
system.l2.ReadExReq_avg_miss_latency::total 83922.500000                       # average ReadExReq miss latency
system.l2.ReadCleanReq_avg_miss_latency::cpu0.inst       168125                       # average ReadCleanReq miss latency
system.l2.ReadCleanReq_avg_miss_latency::total       168125                       # average ReadCleanReq miss latency
system.l2.ReadSharedReq_avg_miss_latency::cpu0.data 85223.066748                       # average ReadSharedReq miss latency
system.l2.ReadSharedReq_avg_miss_latency::total 85223.066748                       # average ReadSharedReq miss latency
system.l2.demand_avg_miss_latency::cpu0.inst       168125                       # average overall miss latency
system.l2.demand_avg_miss_latency::cpu0.data 85221.968398                       # average overall miss latency
system.l2.demand_avg_miss_latency::total 85240.167769                       # average overall miss latency
system.l2.overall_avg_miss_latency::cpu0.inst       168125                       # average overall miss latency
system.l2.overall_avg_miss_latency::cpu0.data 85221.968398                       # average overall miss latency
system.l2.overall_avg_miss_latency::total 85240.167769                       # average overall miss latency
system.l2.blocked_cycles::no_mshrs                  0                       # number of cycles access was blocked
system.l2.blocked_cycles::no_targets                0                       # number of cycles access was blocked
system.l2.blocked::no_mshrs                         0                       # number of cycles access was blocked
system.l2.blocked::no_targets                       0                       # number of cycles access was blocked
system.l2.avg_blocked_cycles::no_mshrs            nan                       # average number of cycles each access was blocked
system.l2.avg_blocked_cycles::no_targets          nan                       # average number of cycles each access was blocked
system.l2.writebacks::writebacks               103927                       # number of writebacks
system.l2.writebacks::total                    103927                       # number of writebacks
system.l2.ReadExReq_mshr_misses::cpu0.data          200                       # number of ReadExReq MSHR misses
system.l2.ReadExReq_mshr_misses::total            200                       # number of ReadExReq MSHR misses
system.l2.ReadCleanReq_mshr_misses::cpu0.inst           52                       # number of ReadCleanReq MSHR misses
system.l2.ReadCleanReq_mshr_misses::total           52                       # number of ReadCleanReq MSHR misses
system.l2.ReadSharedReq_mshr_misses::cpu0.data       236622                       # number of ReadSharedReq MSHR misses
system.l2.ReadSharedReq_mshr_misses::total       236622                       # number of ReadSharedReq MSHR misses
system.l2.demand_mshr_misses::cpu0.inst            52                       # number of demand (read+write) MSHR misses
system.l2.demand_mshr_misses::cpu0.data        236822                       # number of demand (read+write) MSHR misses
system.l2.demand_mshr_misses::total            236874                       # number of demand (read+write) MSHR misses
system.l2.overall_mshr_misses::cpu0.inst           52                       # number of overall MSHR misses
system.l2.overall_mshr_misses::cpu0.data       236822                       # number of overall MSHR misses
system.l2.overall_mshr_misses::total           236874                       # number of overall MSHR misses
system.l2.ReadExReq_mshr_miss_latency::cpu0.data     14784500                       # number of ReadExReq MSHR miss cycles
system.l2.ReadExReq_mshr_miss_latency::total     14784500                       # number of ReadExReq MSHR miss cycles
system.l2.ReadCleanReq_mshr_miss_latency::cpu0.inst      8222500                       # number of ReadCleanReq MSHR miss cycles
system.l2.ReadCleanReq_mshr_miss_latency::total      8222500                       # number of ReadCleanReq MSHR miss cycles
system.l2.ReadSharedReq_mshr_miss_latency::cpu0.data  17799432500                       # number of ReadSharedReq MSHR miss cycles
system.l2.ReadSharedReq_mshr_miss_latency::total  17799432500                       # number of ReadSharedReq MSHR miss cycles
system.l2.demand_mshr_miss_latency::cpu0.inst      8222500                       # number of demand (read+write) MSHR miss cycles
system.l2.demand_mshr_miss_latency::cpu0.data  17814217000                       # number of demand (read+write) MSHR miss cycles
system.l2.demand_mshr_miss_latency::total  17822439500                       # number of demand (read+write) MSHR miss cycles
system.l2.overall_mshr_miss_latency::cpu0.inst      8222500                       # number of overall MSHR miss cycles
system.l2.overall_mshr_miss_latency::cpu0.data  17814217000                       # number of overall MSHR miss cycles
system.l2.overall_mshr_miss_latency::total  17822439500                       # number of overall MSHR miss cycles
system.l2.ReadExReq_mshr_miss_rate::cpu0.data     0.004702                       # mshr miss rate for ReadExReq accesses
system.l2.ReadExReq_mshr_miss_rate::total     0.004702                       # mshr miss rate for ReadExReq accesses
system.l2.ReadCleanReq_mshr_miss_rate::cpu0.inst     0.116854                       # mshr miss rate for ReadCleanReq accesses
system.l2.ReadCleanReq_mshr_miss_rate::total     0.116854                       # mshr miss rate for ReadCleanReq accesses
system.l2.ReadSharedReq_mshr_miss_rate::cpu0.data     0.991407                       # mshr miss rate for ReadSharedReq accesses
system.l2.ReadSharedReq_mshr_miss_rate::total     0.991407                       # mshr miss rate for ReadSharedReq accesses
system.l2.demand_mshr_miss_rate::cpu0.inst     0.116854                       # mshr miss rate for demand accesses
system.l2.demand_mshr_miss_rate::cpu0.data     0.842151                       # mshr miss rate for demand accesses
system.l2.demand_mshr_miss_rate::total       0.841005                       # mshr miss rate for demand accesses
system.l2.overall_mshr_miss_rate::cpu0.inst     0.116854                       # mshr miss rate for overall accesses
system.l2.overall_mshr_miss_rate::cpu0.data     0.842151                       # mshr miss rate for overall accesses
system.l2.overall_mshr_miss_rate::total      0.841005                       # mshr miss rate for overall accesses
system.l2.ReadExReq_avg_mshr_miss_latency::cpu0.data 73922.500000                       # average ReadExReq mshr miss latency
system.l2.ReadExReq_avg_mshr_miss_latency::total 73922.500000                       # average ReadExReq mshr miss latency
system.l2.ReadCleanReq_avg_mshr_miss_latency::cpu0.inst       158125                       # average ReadCleanReq mshr miss latency
system.l2.ReadCleanReq_avg_mshr_miss_latency::total       158125                       # average ReadCleanReq mshr miss latency
system.l2.ReadSharedReq_avg_mshr_miss_latency::cpu0.data 75223.066748                       # average ReadSharedReq mshr miss latency
system.l2.ReadSharedReq_avg_mshr_miss_latency::total 75223.066748                       # average ReadSharedReq mshr miss latency
system.l2.demand_avg_mshr_miss_latency::cpu0.inst       158125                       # average overall mshr miss latency
system.l2.demand_avg_mshr_miss_latency::cpu0.data 75221.968398                       # average overall mshr miss latency
system.l2.demand_avg_mshr_miss_latency::total 75240.167769                       # average overall mshr miss latency
system.l2.overall_avg_mshr_miss_latency::cpu0.inst       158125                       # average overall mshr miss latency
system.l2.overall_avg_mshr_miss_latency::cpu0.data 75221.968398                       # average overall mshr miss latency
system.l2.overall_avg_mshr_miss_latency::total 75240.167769                       # average overall mshr miss latency
system.membus.snoop_filter.tot_requests        473320                       # Total number of requests made to the snoop filter.
system.membus.snoop_filter.hit_single_requests       236446                       # Number of requests hitting in the snoop filter with a single holder of the requested data.
system.membus.snoop_filter.hit_multi_requests            0                       # Number of requests hitting in the snoop filter with multiple (>1) holders of the requested data.
system.membus.snoop_filter.tot_snoops               0                       # Total number of snoops made to the snoop filter.
system.membus.snoop_filter.hit_single_snoops            0                       # Number of snoops hitting in the snoop filter with a single holder of the requested data.
system.membus.snoop_filter.hit_multi_snoops            0                       # Number of snoops hitting in the snoop filter with multiple (>1) holders of the requested data.
system.membus.pwrStateResidencyTicks::UNDEFINED  15267344125                       # Cumulative time (in ticks) in various power states
system.membus.trans_dist::ReadResp             236674                       # Transaction distribution
system.membus.trans_dist::WritebackDirty       103927                       # Transaction distribution
system.membus.trans_dist::CleanEvict           132519                       # Transaction distribution
system.membus.trans_dist::ReadExReq               200                       # Transaction distribution
system.membus.trans_dist::ReadExResp              200                       # Transaction distribution
system.membus.trans_dist::ReadSharedReq        236674                       # Transaction distribution
system.membus.pkt_count_system.l2.mem_side::system.mem_ctrls.port       710194                       # Packet count per connected master and slave (bytes)
system.membus.pkt_count_system.l2.mem_side::total       710194                       # Packet count per connected master and slave (bytes)
system.membus.pkt_count::total                 710194                       # Packet count per connected master and slave (bytes)
system.membus.pkt_size_system.l2.mem_side::system.mem_ctrls.port     21811264                       # Cumulative packet size per connected master and slave (bytes)
system.membus.pkt_size_system.l2.mem_side::total     21811264                       # Cumulative packet size per connected master and slave (bytes)
system.membus.pkt_size::total                21811264                       # Cumulative packet size per connected master and slave (bytes)
system.membus.snoops                                0                       # Total snoops (count)
system.membus.snoopTraffic                          0                       # Total snoop traffic (bytes)
system.membus.snoop_fanout::samples            236874                       # Request fanout histogram
system.membus.snoop_fanout::mean                    0                       # Request fanout histogram
system.membus.snoop_fanout::stdev                   0                       # Request fanout histogram
system.membus.snoop_fanout::underflows              0      0.00%      0.00% # Request fanout histogram
system.membus.snoop_fanout::0                  236874    100.00%    100.00% # Request fanout histogram
system.membus.snoop_fanout::1                       0      0.00%    100.00% # Request fanout histogram
system.membus.snoop_fanout::overflows               0      0.00%    100.00% # Request fanout histogram
system.membus.snoop_fanout::min_value               0                       # Request fanout histogram
system.membus.snoop_fanout::max_value               0                       # Request fanout histogram
system.membus.snoop_fanout::total              236874                       # Request fanout histogram
system.membus.reqLayer12.occupancy          971695500                       # Layer occupancy (ticks)
system.membus.reqLayer12.utilization              6.4                       # Layer utilization (%)
system.membus.respLayer1.occupancy         1244379250                       # Layer occupancy (ticks)
system.membus.respLayer1.utilization              8.2                       # Layer utilization (%)
system.tol2bus.snoop_filter.tot_requests       563311                       # Total number of requests made to the snoop filter.
system.tol2bus.snoop_filter.hit_single_requests       281652                       # Number of requests hitting in the snoop filter with a single holder of the requested data.
system.tol2bus.snoop_filter.hit_multi_requests            7                       # Number of requests hitting in the snoop filter with multiple (>1) holders of the requested data.
system.tol2bus.snoop_filter.tot_snoops            460                       # Total number of snoops made to the snoop filter.
system.tol2bus.snoop_filter.hit_single_snoops          460                       # Number of snoops hitting in the snoop filter with a single holder of the requested data.
system.tol2bus.snoop_filter.hit_multi_snoops            0                       # Number of snoops hitting in the snoop filter with multiple (>1) holders of the requested data.
system.tol2bus.pwrStateResidencyTicks::UNDEFINED  15267344125                       # Cumulative time (in ticks) in various power states
system.tol2bus.trans_dist::ReadResp            239117                       # Transaction distribution
system.tol2bus.trans_dist::WritebackDirty       148621                       # Transaction distribution
system.tol2bus.trans_dist::WritebackClean          445                       # Transaction distribution
system.tol2bus.trans_dist::CleanEvict          369493                       # Transaction distribution
system.tol2bus.trans_dist::ReadExReq            42538                       # Transaction distribution
system.tol2bus.trans_dist::ReadExResp           42538                       # Transaction distribution
system.tol2bus.trans_dist::ReadCleanReq           445                       # Transaction distribution
system.tol2bus.trans_dist::ReadSharedReq       238673                       # Transaction distribution
system.tol2bus.pkt_count_system.cpu0.icache.mem_side::system.l2.cpu_side         1335                       # Packet count per connected master and slave (bytes)
system.tol2bus.pkt_count_system.cpu0.dcache.mem_side::system.l2.cpu_side       843631                       # Packet count per connected master and slave (bytes)
system.tol2bus.pkt_count::total                844966                       # Packet count per connected master and slave (bytes)
system.tol2bus.pkt_size_system.cpu0.icache.mem_side::system.l2.cpu_side        56960                       # Cumulative packet size per connected master and slave (bytes)
system.tol2bus.pkt_size_system.cpu0.dcache.mem_side::system.l2.cpu_side     20857856                       # Cumulative packet size per connected master and slave (bytes)
system.tol2bus.pkt_size::total               20914816                       # Cumulative packet size per connected master and slave (bytes)
system.tol2bus.snoops                          236904                       # Total snoops (count)
system.tol2bus.snoopTraffic                   6651328                       # Total snoop traffic (bytes)
system.tol2bus.snoop_fanout::samples           518560                       # Request fanout histogram
system.tol2bus.snoop_fanout::mean            0.000895                       # Request fanout histogram
system.tol2bus.snoop_fanout::stdev           0.029900                       # Request fanout histogram
system.tol2bus.snoop_fanout::underflows             0      0.00%      0.00% # Request fanout histogram
system.tol2bus.snoop_fanout::0                 518096     99.91%     99.91% # Request fanout histogram
system.tol2bus.snoop_fanout::1                    464      0.09%    100.00% # Request fanout histogram
system.tol2bus.snoop_fanout::2                      0      0.00%    100.00% # Request fanout histogram
system.tol2bus.snoop_fanout::3                      0      0.00%    100.00% # Request fanout histogram
system.tol2bus.snoop_fanout::4                      0      0.00%    100.00% # Request fanout histogram
system.tol2bus.snoop_fanout::5                      0      0.00%    100.00% # Request fanout histogram
system.tol2bus.snoop_fanout::6                      0      0.00%    100.00% # Request fanout histogram
system.tol2bus.snoop_fanout::7                      0      0.00%    100.00% # Request fanout histogram
system.tol2bus.snoop_fanout::8                      0      0.00%    100.00% # Request fanout histogram
system.tol2bus.snoop_fanout::9                      0      0.00%    100.00% # Request fanout histogram
system.tol2bus.snoop_fanout::10                     0      0.00%    100.00% # Request fanout histogram
system.tol2bus.snoop_fanout::11                     0      0.00%    100.00% # Request fanout histogram
system.tol2bus.snoop_fanout::12                     0      0.00%    100.00% # Request fanout histogram
system.tol2bus.snoop_fanout::13                     0      0.00%    100.00% # Request fanout histogram
system.tol2bus.snoop_fanout::14                     0      0.00%    100.00% # Request fanout histogram
system.tol2bus.snoop_fanout::15                     0      0.00%    100.00% # Request fanout histogram
system.tol2bus.snoop_fanout::16                     0      0.00%    100.00% # Request fanout histogram
system.tol2bus.snoop_fanout::17                     0      0.00%    100.00% # Request fanout histogram
system.tol2bus.snoop_fanout::18                     0      0.00%    100.00% # Request fanout histogram
system.tol2bus.snoop_fanout::19                     0      0.00%    100.00% # Request fanout histogram
system.tol2bus.snoop_fanout::20                     0      0.00%    100.00% # Request fanout histogram
system.tol2bus.snoop_fanout::21                     0      0.00%    100.00% # Request fanout histogram
system.tol2bus.snoop_fanout::22                     0      0.00%    100.00% # Request fanout histogram
system.tol2bus.snoop_fanout::23                     0      0.00%    100.00% # Request fanout histogram
system.tol2bus.snoop_fanout::24                     0      0.00%    100.00% # Request fanout histogram
system.tol2bus.snoop_fanout::overflows              0      0.00%    100.00% # Request fanout histogram
system.tol2bus.snoop_fanout::min_value              0                       # Request fanout histogram
system.tol2bus.snoop_fanout::max_value              1                       # Request fanout histogram
system.tol2bus.snoop_fanout::total             518560                       # Request fanout histogram
system.tol2bus.reqLayer0.occupancy          326794500                       # Layer occupancy (ticks)
system.tol2bus.reqLayer0.utilization              2.1                       # Layer utilization (%)
system.tol2bus.respLayer0.occupancy            667500                       # Layer occupancy (ticks)
system.tol2bus.respLayer0.utilization             0.0                       # Layer utilization (%)
system.tol2bus.respLayer1.occupancy         421815499                       # Layer occupancy (ticks)
system.tol2bus.respLayer1.utilization             2.8                       # Layer utilization (%)

---------- End Simulation Statistics   ----------
