
---------- Begin Simulation Statistics ----------
sim_seconds                                  0.015267                       # Number of seconds simulated
sim_ticks                                 15267344125                       # Number of ticks simulated
final_tick                               4122182913750                       # Number of ticks from beginning of simulation (restored from checkpoints and never reset)
sim_freq                                 1000000000000                       # Frequency of simulated ticks
host_inst_rate                               51035662                       # Simulator instruction rate (inst/s)
host_op_rate                                 95106155                       # Simulator op (including micro ops) rate (op/s)
host_tick_rate                              129492275                       # Simulator tick rate (ticks/s)
host_mem_usage                                3428912                       # Number of bytes of host memory used
host_seconds                                   117.90                       # Real time elapsed on the host
sim_insts                                  6017183375                       # Number of instructions simulated
sim_ops                                   11213164586                       # Number of ops (including micro ops) simulated
system.voltage_domain.voltage                       1                       # Voltage in Volts
system.clk_domain.clock                          1000                       # Clock period in ticks
system.mem_ctrls.pwrStateResidencyTicks::UNDEFINED  15267344125                       # Cumulative time (in ticks) in various power states
system.mem_ctrls.bytes_read::cpu0.inst            704                       # Number of bytes read from this memory
system.mem_ctrls.bytes_read::cpu0.data        6990464                       # Number of bytes read from this memory
system.mem_ctrls.bytes_read::total            6991168                       # Number of bytes read from this memory
system.mem_ctrls.bytes_inst_read::cpu0.inst          704                       # Number of instructions bytes read from this memory
system.mem_ctrls.bytes_inst_read::total           704                       # Number of instructions bytes read from this memory
system.mem_ctrls.bytes_written::writebacks        41536                       # Number of bytes written to this memory
system.mem_ctrls.bytes_written::total           41536                       # Number of bytes written to this memory
system.mem_ctrls.num_reads::cpu0.inst              11                       # Number of read requests responded to by this memory
system.mem_ctrls.num_reads::cpu0.data          109226                       # Number of read requests responded to by this memory
system.mem_ctrls.num_reads::total              109237                       # Number of read requests responded to by this memory
system.mem_ctrls.num_writes::writebacks           649                       # Number of write requests responded to by this memory
system.mem_ctrls.num_writes::total                649                       # Number of write requests responded to by this memory
system.mem_ctrls.bw_read::cpu0.inst             46111                       # Total read bandwidth from this memory (bytes/s)
system.mem_ctrls.bw_read::cpu0.data         457870337                       # Total read bandwidth from this memory (bytes/s)
system.mem_ctrls.bw_read::total             457916449                       # Total read bandwidth from this memory (bytes/s)
system.mem_ctrls.bw_inst_read::cpu0.inst        46111                       # Instruction read bandwidth from this memory (bytes/s)
system.mem_ctrls.bw_inst_read::total            46111                       # Instruction read bandwidth from this memory (bytes/s)
system.mem_ctrls.bw_write::writebacks         2720578                       # Write bandwidth from this memory (bytes/s)
system.mem_ctrls.bw_write::total              2720578                       # Write bandwidth from this memory (bytes/s)
system.mem_ctrls.bw_total::writebacks         2720578                       # Total bandwidth to/from this memory (bytes/s)
system.mem_ctrls.bw_total::cpu0.inst            46111                       # Total bandwidth to/from this memory (bytes/s)
system.mem_ctrls.bw_total::cpu0.data        457870337                       # Total bandwidth to/from this memory (bytes/s)
system.mem_ctrls.bw_total::total            460637026                       # Total bandwidth to/from this memory (bytes/s)
system.mem_ctrls.readReqs                      109237                       # Number of read requests accepted
system.mem_ctrls.writeReqs                        649                       # Number of write requests accepted
system.mem_ctrls.readBursts                    109237                       # Number of DRAM read bursts, including those serviced by the write queue
system.mem_ctrls.writeBursts                      649                       # Number of DRAM write bursts, including those merged in the write queue
system.mem_ctrls.bytesReadDRAM                6985408                       # Total number of bytes read from DRAM
system.mem_ctrls.bytesReadWrQ                    5760                       # Total number of bytes read from write queue
system.mem_ctrls.bytesWritten                   41856                       # Total number of bytes written to DRAM
system.mem_ctrls.bytesReadSys                 6991168                       # Total read bytes from the system interface side
system.mem_ctrls.bytesWrittenSys                41536                       # Total written bytes from the system interface side
system.mem_ctrls.servicedByWrQ                     90                       # Number of DRAM read bursts serviced by the write queue
system.mem_ctrls.mergedWrBursts                     0                       # Number of DRAM write bursts merged with an existing one
system.mem_ctrls.neitherReadNorWriteReqs            0                       # Number of requests that are neither read nor write
system.mem_ctrls.perBankRdBursts::0              6763                       # Per bank write bursts
system.mem_ctrls.perBankRdBursts::1              6941                       # Per bank write bursts
system.mem_ctrls.perBankRdBursts::2              6616                       # Per bank write bursts
system.mem_ctrls.perBankRdBursts::3              6545                       # Per bank write bursts
system.mem_ctrls.perBankRdBursts::4              6360                       # Per bank write bursts
system.mem_ctrls.perBankRdBursts::5              6316                       # Per bank write bursts
system.mem_ctrls.perBankRdBursts::6              6661                       # Per bank write bursts
system.mem_ctrls.perBankRdBursts::7              6557                       # Per bank write bursts
system.mem_ctrls.perBankRdBursts::8              6484                       # Per bank write bursts
system.mem_ctrls.perBankRdBursts::9              6720                       # Per bank write bursts
system.mem_ctrls.perBankRdBursts::10             6662                       # Per bank write bursts
system.mem_ctrls.perBankRdBursts::11             6407                       # Per bank write bursts
system.mem_ctrls.perBankRdBursts::12             7453                       # Per bank write bursts
system.mem_ctrls.perBankRdBursts::13             7769                       # Per bank write bursts
system.mem_ctrls.perBankRdBursts::14             7557                       # Per bank write bursts
system.mem_ctrls.perBankRdBursts::15             7336                       # Per bank write bursts
system.mem_ctrls.perBankWrBursts::0                57                       # Per bank write bursts
system.mem_ctrls.perBankWrBursts::1                38                       # Per bank write bursts
system.mem_ctrls.perBankWrBursts::2                 4                       # Per bank write bursts
system.mem_ctrls.perBankWrBursts::3                31                       # Per bank write bursts
system.mem_ctrls.perBankWrBursts::4                 4                       # Per bank write bursts
system.mem_ctrls.perBankWrBursts::5                 4                       # Per bank write bursts
system.mem_ctrls.perBankWrBursts::6                 4                       # Per bank write bursts
system.mem_ctrls.perBankWrBursts::7                13                       # Per bank write bursts
system.mem_ctrls.perBankWrBursts::8                14                       # Per bank write bursts
system.mem_ctrls.perBankWrBursts::9                27                       # Per bank write bursts
system.mem_ctrls.perBankWrBursts::10               23                       # Per bank write bursts
system.mem_ctrls.perBankWrBursts::11               33                       # Per bank write bursts
system.mem_ctrls.perBankWrBursts::12               81                       # Per bank write bursts
system.mem_ctrls.perBankWrBursts::13              112                       # Per bank write bursts
system.mem_ctrls.perBankWrBursts::14              108                       # Per bank write bursts
system.mem_ctrls.perBankWrBursts::15              101                       # Per bank write bursts
system.mem_ctrls.numRdRetry                         0                       # Number of times read queue was full causing retry
system.mem_ctrls.numWrRetry                         0                       # Number of times write queue was full causing retry
system.mem_ctrls.totGap                   15267376500                       # Total gap between requests
system.mem_ctrls.readPktSize::0                     0                       # Read request sizes (log2)
system.mem_ctrls.readPktSize::1                     0                       # Read request sizes (log2)
system.mem_ctrls.readPktSize::2                     0                       # Read request sizes (log2)
system.mem_ctrls.readPktSize::3                     0                       # Read request sizes (log2)
system.mem_ctrls.readPktSize::4                     0                       # Read request sizes (log2)
system.mem_ctrls.readPktSize::5                     0                       # Read request sizes (log2)
system.mem_ctrls.readPktSize::6                109237                       # Read request sizes (log2)
system.mem_ctrls.writePktSize::0                    0                       # Write request sizes (log2)
system.mem_ctrls.writePktSize::1                    0                       # Write request sizes (log2)
system.mem_ctrls.writePktSize::2                    0                       # Write request sizes (log2)
system.mem_ctrls.writePktSize::3                    0                       # Write request sizes (log2)
system.mem_ctrls.writePktSize::4                    0                       # Write request sizes (log2)
system.mem_ctrls.writePktSize::5                    0                       # Write request sizes (log2)
system.mem_ctrls.writePktSize::6                  649                       # Write request sizes (log2)
system.mem_ctrls.rdQLenPdf::0                   88023                       # What read queue length does an incoming req see
system.mem_ctrls.rdQLenPdf::1                   19548                       # What read queue length does an incoming req see
system.mem_ctrls.rdQLenPdf::2                    1504                       # What read queue length does an incoming req see
system.mem_ctrls.rdQLenPdf::3                      71                       # What read queue length does an incoming req see
system.mem_ctrls.rdQLenPdf::4                       1                       # What read queue length does an incoming req see
system.mem_ctrls.rdQLenPdf::5                       0                       # What read queue length does an incoming req see
system.mem_ctrls.rdQLenPdf::6                       0                       # What read queue length does an incoming req see
system.mem_ctrls.rdQLenPdf::7                       0                       # What read queue length does an incoming req see
system.mem_ctrls.rdQLenPdf::8                       0                       # What read queue length does an incoming req see
system.mem_ctrls.rdQLenPdf::9                       0                       # What read queue length does an incoming req see
system.mem_ctrls.rdQLenPdf::10                      0                       # What read queue length does an incoming req see
system.mem_ctrls.rdQLenPdf::11                      0                       # What read queue length does an incoming req see
system.mem_ctrls.rdQLenPdf::12                      0                       # What read queue length does an incoming req see
system.mem_ctrls.rdQLenPdf::13                      0                       # What read queue length does an incoming req see
system.mem_ctrls.rdQLenPdf::14                      0                       # What read queue length does an incoming req see
system.mem_ctrls.rdQLenPdf::15                      0                       # What read queue length does an incoming req see
system.mem_ctrls.rdQLenPdf::16                      0                       # What read queue length does an incoming req see
system.mem_ctrls.rdQLenPdf::17                      0                       # What read queue length does an incoming req see
system.mem_ctrls.rdQLenPdf::18                      0                       # What read queue length does an incoming req see
system.mem_ctrls.rdQLenPdf::19                      0                       # What read queue length does an incoming req see
system.mem_ctrls.rdQLenPdf::20                      0                       # What read queue length does an incoming req see
system.mem_ctrls.rdQLenPdf::21                      0                       # What read queue length does an incoming req see
system.mem_ctrls.rdQLenPdf::22                      0                       # What read queue length does an incoming req see
system.mem_ctrls.rdQLenPdf::23                      0                       # What read queue length does an incoming req see
system.mem_ctrls.rdQLenPdf::24                      0                       # What read queue length does an incoming req see
system.mem_ctrls.rdQLenPdf::25                      0                       # What read queue length does an incoming req see
system.mem_ctrls.rdQLenPdf::26                      0                       # What read queue length does an incoming req see
system.mem_ctrls.rdQLenPdf::27                      0                       # What read queue length does an incoming req see
system.mem_ctrls.rdQLenPdf::28                      0                       # What read queue length does an incoming req see
system.mem_ctrls.rdQLenPdf::29                      0                       # What read queue length does an incoming req see
system.mem_ctrls.rdQLenPdf::30                      0                       # What read queue length does an incoming req see
system.mem_ctrls.rdQLenPdf::31                      0                       # What read queue length does an incoming req see
system.mem_ctrls.wrQLenPdf::0                       0                       # What write queue length does an incoming req see
system.mem_ctrls.wrQLenPdf::1                       0                       # What write queue length does an incoming req see
system.mem_ctrls.wrQLenPdf::2                       0                       # What write queue length does an incoming req see
system.mem_ctrls.wrQLenPdf::3                       0                       # What write queue length does an incoming req see
system.mem_ctrls.wrQLenPdf::4                       0                       # What write queue length does an incoming req see
system.mem_ctrls.wrQLenPdf::5                       0                       # What write queue length does an incoming req see
system.mem_ctrls.wrQLenPdf::6                       0                       # What write queue length does an incoming req see
system.mem_ctrls.wrQLenPdf::7                       0                       # What write queue length does an incoming req see
system.mem_ctrls.wrQLenPdf::8                       0                       # What write queue length does an incoming req see
system.mem_ctrls.wrQLenPdf::9                       0                       # What write queue length does an incoming req see
system.mem_ctrls.wrQLenPdf::10                      0                       # What write queue length does an incoming req see
system.mem_ctrls.wrQLenPdf::11                      0                       # What write queue length does an incoming req see
system.mem_ctrls.wrQLenPdf::12                      0                       # What write queue length does an incoming req see
system.mem_ctrls.wrQLenPdf::13                      0                       # What write queue length does an incoming req see
system.mem_ctrls.wrQLenPdf::14                      0                       # What write queue length does an incoming req see
system.mem_ctrls.wrQLenPdf::15                      6                       # What write queue length does an incoming req see
system.mem_ctrls.wrQLenPdf::16                      7                       # What write queue length does an incoming req see
system.mem_ctrls.wrQLenPdf::17                     38                       # What write queue length does an incoming req see
system.mem_ctrls.wrQLenPdf::18                     40                       # What write queue length does an incoming req see
system.mem_ctrls.wrQLenPdf::19                     40                       # What write queue length does an incoming req see
system.mem_ctrls.wrQLenPdf::20                     40                       # What write queue length does an incoming req see
system.mem_ctrls.wrQLenPdf::21                     40                       # What write queue length does an incoming req see
system.mem_ctrls.wrQLenPdf::22                     40                       # What write queue length does an incoming req see
system.mem_ctrls.wrQLenPdf::23                     40                       # What write queue length does an incoming req see
system.mem_ctrls.wrQLenPdf::24                     39                       # What write queue length does an incoming req see
system.mem_ctrls.wrQLenPdf::25                     39                       # What write queue length does an incoming req see
system.mem_ctrls.wrQLenPdf::26                     39                       # What write queue length does an incoming req see
system.mem_ctrls.wrQLenPdf::27                     39                       # What write queue length does an incoming req see
system.mem_ctrls.wrQLenPdf::28                     39                       # What write queue length does an incoming req see
system.mem_ctrls.wrQLenPdf::29                     40                       # What write queue length does an incoming req see
system.mem_ctrls.wrQLenPdf::30                     42                       # What write queue length does an incoming req see
system.mem_ctrls.wrQLenPdf::31                     40                       # What write queue length does an incoming req see
system.mem_ctrls.wrQLenPdf::32                     41                       # What write queue length does an incoming req see
system.mem_ctrls.wrQLenPdf::33                      0                       # What write queue length does an incoming req see
system.mem_ctrls.wrQLenPdf::34                      0                       # What write queue length does an incoming req see
system.mem_ctrls.wrQLenPdf::35                      0                       # What write queue length does an incoming req see
system.mem_ctrls.wrQLenPdf::36                      0                       # What write queue length does an incoming req see
system.mem_ctrls.wrQLenPdf::37                      0                       # What write queue length does an incoming req see
system.mem_ctrls.wrQLenPdf::38                      0                       # What write queue length does an incoming req see
system.mem_ctrls.wrQLenPdf::39                      0                       # What write queue length does an incoming req see
system.mem_ctrls.wrQLenPdf::40                      0                       # What write queue length does an incoming req see
system.mem_ctrls.wrQLenPdf::41                      0                       # What write queue length does an incoming req see
system.mem_ctrls.wrQLenPdf::42                      0                       # What write queue length does an incoming req see
system.mem_ctrls.wrQLenPdf::43                      0                       # What write queue length does an incoming req see
system.mem_ctrls.wrQLenPdf::44                      0                       # What write queue length does an incoming req see
system.mem_ctrls.wrQLenPdf::45                      0                       # What write queue length does an incoming req see
system.mem_ctrls.wrQLenPdf::46                      0                       # What write queue length does an incoming req see
system.mem_ctrls.wrQLenPdf::47                      0                       # What write queue length does an incoming req see
system.mem_ctrls.wrQLenPdf::48                      0                       # What write queue length does an incoming req see
system.mem_ctrls.wrQLenPdf::49                      0                       # What write queue length does an incoming req see
system.mem_ctrls.wrQLenPdf::50                      0                       # What write queue length does an incoming req see
system.mem_ctrls.wrQLenPdf::51                      0                       # What write queue length does an incoming req see
system.mem_ctrls.wrQLenPdf::52                      0                       # What write queue length does an incoming req see
system.mem_ctrls.wrQLenPdf::53                      0                       # What write queue length does an incoming req see
system.mem_ctrls.wrQLenPdf::54                      0                       # What write queue length does an incoming req see
system.mem_ctrls.wrQLenPdf::55                      0                       # What write queue length does an incoming req see
system.mem_ctrls.wrQLenPdf::56                      0                       # What write queue length does an incoming req see
system.mem_ctrls.wrQLenPdf::57                      0                       # What write queue length does an incoming req see
system.mem_ctrls.wrQLenPdf::58                      0                       # What write queue length does an incoming req see
system.mem_ctrls.wrQLenPdf::59                      0                       # What write queue length does an incoming req see
system.mem_ctrls.wrQLenPdf::60                      0                       # What write queue length does an incoming req see
system.mem_ctrls.wrQLenPdf::61                      0                       # What write queue length does an incoming req see
system.mem_ctrls.wrQLenPdf::62                      0                       # What write queue length does an incoming req see
system.mem_ctrls.wrQLenPdf::63                      0                       # What write queue length does an incoming req see
system.mem_ctrls.bytesPerActivate::samples        72827                       # Bytes accessed per row activation
system.mem_ctrls.bytesPerActivate::mean     96.499595                       # Bytes accessed per row activation
system.mem_ctrls.bytesPerActivate::gmean    86.139843                       # Bytes accessed per row activation
system.mem_ctrls.bytesPerActivate::stdev    54.844580                       # Bytes accessed per row activation
system.mem_ctrls.bytesPerActivate::64-127        47838     65.69%     65.69% # Bytes accessed per row activation
system.mem_ctrls.bytesPerActivate::128-191        16826     23.10%     88.79% # Bytes accessed per row activation
system.mem_ctrls.bytesPerActivate::192-255         5498      7.55%     96.34% # Bytes accessed per row activation
system.mem_ctrls.bytesPerActivate::256-319         1875      2.57%     98.92% # Bytes accessed per row activation
system.mem_ctrls.bytesPerActivate::320-383          555      0.76%     99.68% # Bytes accessed per row activation
system.mem_ctrls.bytesPerActivate::384-447          155      0.21%     99.89% # Bytes accessed per row activation
system.mem_ctrls.bytesPerActivate::448-511           50      0.07%     99.96% # Bytes accessed per row activation
system.mem_ctrls.bytesPerActivate::512-575           16      0.02%     99.98% # Bytes accessed per row activation
system.mem_ctrls.bytesPerActivate::576-639            8      0.01%     99.99% # Bytes accessed per row activation
system.mem_ctrls.bytesPerActivate::640-703            4      0.01%    100.00% # Bytes accessed per row activation
system.mem_ctrls.bytesPerActivate::960-1023            2      0.00%    100.00% # Bytes accessed per row activation
system.mem_ctrls.bytesPerActivate::total        72827                       # Bytes accessed per row activation
system.mem_ctrls.rdPerTurnAround::samples           40                       # Reads before turning the bus around for writes
system.mem_ctrls.rdPerTurnAround::mean    2761.875000                       # Reads before turning the bus around for writes
system.mem_ctrls.rdPerTurnAround::gmean   2670.211903                       # Reads before turning the bus around for writes
system.mem_ctrls.rdPerTurnAround::stdev    709.166075                       # Reads before turning the bus around for writes
system.mem_ctrls.rdPerTurnAround::1280-1535            1      2.50%      2.50% # Reads before turning the bus around for writes
system.mem_ctrls.rdPerTurnAround::1536-1791            2      5.00%      7.50% # Reads before turning the bus around for writes
system.mem_ctrls.rdPerTurnAround::1792-2047            4     10.00%     17.50% # Reads before turning the bus around for writes
system.mem_ctrls.rdPerTurnAround::2048-2303            5     12.50%     30.00% # Reads before turning the bus around for writes
system.mem_ctrls.rdPerTurnAround::2304-2559            4     10.00%     40.00% # Reads before turning the bus around for writes
system.mem_ctrls.rdPerTurnAround::2560-2815            5     12.50%     52.50% # Reads before turning the bus around for writes
system.mem_ctrls.rdPerTurnAround::2816-3071            5     12.50%     65.00% # Reads before turning the bus around for writes
system.mem_ctrls.rdPerTurnAround::3072-3327            4     10.00%     75.00% # Reads before turning the bus around for writes
system.mem_ctrls.rdPerTurnAround::3328-3583            4     10.00%     85.00% # Reads before turning the bus around for writes
system.mem_ctrls.rdPerTurnAround::3584-3839            3      7.50%     92.50% # Reads before turning the bus around for writes
system.mem_ctrls.rdPerTurnAround::3840-4095            2      5.00%     97.50% # Reads before turning the bus around for writes
system.mem_ctrls.rdPerTurnAround::4096-4351            1      2.50%    100.00% # Reads before turning the bus around for writes
system.mem_ctrls.rdPerTurnAround::total            40                       # Reads before turning the bus around for writes
system.mem_ctrls.wrPerTurnAround::samples           40                       # Writes before turning the bus around for reads
system.mem_ctrls.wrPerTurnAround::mean      16.350000                       # Writes before turning the bus around for reads
system.mem_ctrls.wrPerTurnAround::gmean     16.333215                       # Writes before turning the bus around for reads
system.mem_ctrls.wrPerTurnAround::stdev      0.769615                       # Writes before turning the bus around for reads
system.mem_ctrls.wrPerTurnAround::16               33     82.50%     82.50% # Writes before turning the bus around for reads
system.mem_ctrls.wrPerTurnAround::18                7     17.50%    100.00% # Writes before turning the bus around for reads
system.mem_ctrls.wrPerTurnAround::total            40                       # Writes before turning the bus around for reads
system.mem_ctrls.totQLat                   3068311000                       # Total ticks spent queuing
system.mem_ctrls.totMemAccLat              5114817250                       # Total ticks spent from burst creation until serviced by the DRAM
system.mem_ctrls.totBusLat                  545735000                       # Total ticks spent in databus transfers
system.mem_ctrls.avgQLat                     28111.73                       # Average queueing delay per DRAM burst
system.mem_ctrls.avgBusLat                    5000.00                       # Average bus latency per DRAM burst
system.mem_ctrls.avgMemAccLat                46861.73                       # Average memory access latency per DRAM burst
system.mem_ctrls.avgRdBW                       457.54                       # Average DRAM read bandwidth in MiByte/s
system.mem_ctrls.avgWrBW                         2.74                       # Average achieved write bandwidth in MiByte/s
system.mem_ctrls.avgRdBWSys                    457.92                       # Average system read bandwidth in MiByte/s
system.mem_ctrls.avgWrBWSys                      2.72                       # Average system write bandwidth in MiByte/s
system.mem_ctrls.peakBW                      12800.00                       # Theoretical peak bandwidth in MiByte/s
system.mem_ctrls.busUtil                         3.60                       # Data bus utilization in percentage
system.mem_ctrls.busUtilRead                     3.57                       # Data bus utilization in percentage for reads
system.mem_ctrls.busUtilWrite                    0.02                       # Data bus utilization in percentage for writes
system.mem_ctrls.avgRdQLen                       1.18                       # Average read queue length when enqueuing
system.mem_ctrls.avgWrQLen                      25.31                       # Average write queue length when enqueuing
system.mem_ctrls.readRowHits                    36531                       # Number of row buffer hits during reads
system.mem_ctrls.writeRowHits                     447                       # Number of row buffer hits during writes
system.mem_ctrls.readRowHitRate                 33.47                       # Row buffer hit rate for reads
system.mem_ctrls.writeRowHitRate                68.88                       # Row buffer hit rate for writes
system.mem_ctrls.avgGap                     138938.32                       # Average gap between requests
system.mem_ctrls.pageHitRate                    33.68                       # Row buffer hit rate, read and write combined
system.mem_ctrls_0.actEnergy                252870240                       # Energy for activate commands per rank (pJ)
system.mem_ctrls_0.preEnergy                134407515                       # Energy for precharge commands per rank (pJ)
system.mem_ctrls_0.readEnergy               376699260                       # Energy for read commands per rank (pJ)
system.mem_ctrls_0.writeEnergy                 809100                       # Energy for write commands per rank (pJ)
system.mem_ctrls_0.refreshEnergy         1215143280.000000                       # Energy for refresh commands per rank (pJ)
system.mem_ctrls_0.actBackEnergy           1095480720                       # Energy for active background per rank (pJ)
system.mem_ctrls_0.preBackEnergy             31688640                       # Energy for precharge background per rank (pJ)
system.mem_ctrls_0.actPowerDownEnergy      5033880330                       # Energy for active power-down per rank (pJ)
system.mem_ctrls_0.prePowerDownEnergy       516508800                       # Energy for precharge power-down per rank (pJ)
system.mem_ctrls_0.selfRefreshEnergy        135320880                       # Energy for self refresh per rank (pJ)
system.mem_ctrls_0.totalEnergy             8792948145                       # Total energy per rank (pJ)
system.mem_ctrls_0.averagePower            575.931745                       # Core power per rank (mW)
system.mem_ctrls_0.totalIdleTime          12782011625                       # Total Idle time Per DRAM Rank
system.mem_ctrls_0.memoryStateTime::IDLE     28770000                       # Time in different power states
system.mem_ctrls_0.memoryStateTime::REF     514458000                       # Time in different power states
system.mem_ctrls_0.memoryStateTime::SREF    397853000                       # Time in different power states
system.mem_ctrls_0.memoryStateTime::PRE_PDN   1345064750                       # Time in different power states
system.mem_ctrls_0.memoryStateTime::ACT    1942060000                       # Time in different power states
system.mem_ctrls_0.memoryStateTime::ACT_PDN  11039138375                       # Time in different power states
system.mem_ctrls_1.actEnergy                267085980                       # Energy for activate commands per rank (pJ)
system.mem_ctrls_1.preEnergy                141970950                       # Energy for precharge commands per rank (pJ)
system.mem_ctrls_1.readEnergy               402610320                       # Energy for read commands per rank (pJ)
system.mem_ctrls_1.writeEnergy                2604780                       # Energy for write commands per rank (pJ)
system.mem_ctrls_1.refreshEnergy         1220060400.000000                       # Energy for refresh commands per rank (pJ)
system.mem_ctrls_1.actBackEnergy           1151332740                       # Energy for active background per rank (pJ)
system.mem_ctrls_1.preBackEnergy             31875360                       # Energy for precharge background per rank (pJ)
system.mem_ctrls_1.actPowerDownEnergy      4977993540                       # Energy for active power-down per rank (pJ)
system.mem_ctrls_1.prePowerDownEnergy       535001280                       # Energy for precharge power-down per rank (pJ)
system.mem_ctrls_1.selfRefreshEnergy        124769160                       # Energy for self refresh per rank (pJ)
system.mem_ctrls_1.totalEnergy             8855481510                       # Total energy per rank (pJ)
system.mem_ctrls_1.averagePower            580.027635                       # Core power per rank (mW)
system.mem_ctrls_1.totalIdleTime          12658936375                       # Total Idle time Per DRAM Rank
system.mem_ctrls_1.memoryStateTime::IDLE     29208000                       # Time in different power states
system.mem_ctrls_1.memoryStateTime::REF     516562000                       # Time in different power states
system.mem_ctrls_1.memoryStateTime::SREF    349202750                       # Time in different power states
system.mem_ctrls_1.memoryStateTime::PRE_PDN   1393190750                       # Time in different power states
system.mem_ctrls_1.memoryStateTime::ACT    2062621000                       # Time in different power states
system.mem_ctrls_1.memoryStateTime::ACT_PDN  10916559625                       # Time in different power states
system.pwrStateResidencyTicks::UNDEFINED  15267344125                       # Cumulative time (in ticks) in various power states
system.cpu0.branchPred.lookups                3178678                       # Number of BP lookups
system.cpu0.branchPred.condPredicted          3178678                       # Number of conditional branches predicted
system.cpu0.branchPred.condIncorrect           113601                       # Number of conditional branches incorrect
system.cpu0.branchPred.BTBLookups             2298245                       # Number of BTB lookups
system.cpu0.branchPred.BTBHits                      0                       # Number of BTB hits
system.cpu0.branchPred.BTBCorrect                   0                       # Number of correct BTB predictions (this stat may not work properly.
system.cpu0.branchPred.BTBHitPct             0.000000                       # BTB Hit Percentage
system.cpu0.branchPred.usedRAS                  69093                       # Number of times the RAS was used to get a target.
system.cpu0.branchPred.RASInCorrect              9237                       # Number of incorrect RAS predictions.
system.cpu0.branchPred.indirectLookups        2298245                       # Number of indirect predictor lookups.
system.cpu0.branchPred.indirectHits           1408068                       # Number of indirect target hits.
system.cpu0.branchPred.indirectMisses          890177                       # Number of indirect misses.
system.cpu0.branchPredindirectMispredicted        32822                       # Number of mispredicted indirect branches.
system.cpu_voltage_domain.voltage                   1                       # Voltage in Volts
system.cpu_clk_domain.clock                       500                       # Clock period in ticks
system.cpu0.dtb.walker.pwrStateResidencyTicks::UNDEFINED  15267344125                       # Cumulative time (in ticks) in various power states
system.cpu0.dtb.rdAccesses                    1655219                       # TLB accesses on read requests
system.cpu0.dtb.wrAccesses                      89141                       # TLB accesses on write requests
system.cpu0.dtb.rdMisses                       407931                       # TLB misses on read requests
system.cpu0.dtb.wrMisses                         1555                       # TLB misses on write requests
system.cpu0.apic_clk_domain.clock                8000                       # Clock period in ticks
system.cpu0.interrupts.pwrStateResidencyTicks::UNDEFINED  15267344125                       # Cumulative time (in ticks) in various power states
system.cpu0.itb.walker.pwrStateResidencyTicks::UNDEFINED  15267344125                       # Cumulative time (in ticks) in various power states
system.cpu0.itb.rdAccesses                          0                       # TLB accesses on read requests
system.cpu0.itb.wrAccesses                    2778955                       # TLB accesses on write requests
system.cpu0.itb.rdMisses                            0                       # TLB misses on read requests
system.cpu0.itb.wrMisses                         5804                       # TLB misses on write requests
system.cpu0.workload.numSyscalls                    1                       # Number of system calls
system.cpu0.pwrStateResidencyTicks::ON    15267344125                       # Cumulative time (in ticks) in various power states
system.cpu0.numCycles                        30534688                       # number of cpu cycles simulated
system.cpu0.numWorkItemsStarted                     0                       # number of work items this cpu started
system.cpu0.numWorkItemsCompleted                   0                       # number of work items this cpu completed
system.cpu0.fetch.icacheStallCycles           2828649                       # Number of cycles fetch is stalled on an Icache miss
system.cpu0.fetch.Insts                       9020548                       # Number of instructions fetch has processed
system.cpu0.fetch.Branches                    3178678                       # Number of branches that fetch encountered
system.cpu0.fetch.predictedBranches           1477161                       # Number of branches that fetch has predicted taken
system.cpu0.fetch.Cycles                     27501089                       # Number of cycles fetch has run and was not squashing or blocked
system.cpu0.fetch.SquashCycles                 231058                       # Number of cycles fetch has spent squashing
system.cpu0.fetch.TlbCycles                      1209                       # Number of cycles fetch has spent waiting for tlb
system.cpu0.fetch.MiscStallCycles                1302                       # Number of cycles fetch has spent waiting on interrupts, or bad addresses, or out of MSHRs
system.cpu0.fetch.PendingTrapStallCycles        52178                       # Number of stall cycles due to pending traps
system.cpu0.fetch.CacheLines                  2773151                       # Number of cache lines fetched
system.cpu0.fetch.IcacheSquashes                16060                       # Number of outstanding Icache misses that were squashed
system.cpu0.fetch.ItlbSquashes                      8                       # Number of outstanding ITLB misses that were squashed
system.cpu0.fetch.rateDist::samples          30499956                       # Number of instructions fetched each cycle (Total)
system.cpu0.fetch.rateDist::mean             0.593535                       # Number of instructions fetched each cycle (Total)
system.cpu0.fetch.rateDist::stdev            1.881349                       # Number of instructions fetched each cycle (Total)
system.cpu0.fetch.rateDist::underflows              0      0.00%      0.00% # Number of instructions fetched each cycle (Total)
system.cpu0.fetch.rateDist::0                26897385     88.19%     88.19% # Number of instructions fetched each cycle (Total)
system.cpu0.fetch.rateDist::1                   26392      0.09%     88.27% # Number of instructions fetched each cycle (Total)
system.cpu0.fetch.rateDist::2                 1427904      4.68%     92.96% # Number of instructions fetched each cycle (Total)
system.cpu0.fetch.rateDist::3                   43897      0.14%     93.10% # Number of instructions fetched each cycle (Total)
system.cpu0.fetch.rateDist::4                  257637      0.84%     93.95% # Number of instructions fetched each cycle (Total)
system.cpu0.fetch.rateDist::5                  101001      0.33%     94.28% # Number of instructions fetched each cycle (Total)
system.cpu0.fetch.rateDist::6                  189673      0.62%     94.90% # Number of instructions fetched each cycle (Total)
system.cpu0.fetch.rateDist::7                   33221      0.11%     95.01% # Number of instructions fetched each cycle (Total)
system.cpu0.fetch.rateDist::8                 1522846      4.99%    100.00% # Number of instructions fetched each cycle (Total)
system.cpu0.fetch.rateDist::overflows               0      0.00%    100.00% # Number of instructions fetched each cycle (Total)
system.cpu0.fetch.rateDist::min_value               0                       # Number of instructions fetched each cycle (Total)
system.cpu0.fetch.rateDist::max_value               8                       # Number of instructions fetched each cycle (Total)
system.cpu0.fetch.rateDist::total            30499956                       # Number of instructions fetched each cycle (Total)
system.cpu0.fetch.branchRate                 0.104101                       # Number of branch fetches per cycle
system.cpu0.fetch.rate                       0.295420                       # Number of inst fetches per cycle
system.cpu0.decode.IdleCycles                 1358154                       # Number of cycles decode is idle
system.cpu0.decode.BlockedCycles             26656818                       # Number of cycles decode is blocked
system.cpu0.decode.RunCycles                  1663543                       # Number of cycles decode is running
system.cpu0.decode.UnblockCycles               705912                       # Number of cycles decode is unblocking
system.cpu0.decode.SquashCycles                115529                       # Number of cycles decode is squashing
system.cpu0.decode.DecodedInsts              15445813                       # Number of instructions handled by decode
system.cpu0.rename.SquashCycles                115529                       # Number of cycles rename is squashing
system.cpu0.rename.IdleCycles                 1596810                       # Number of cycles rename is idle
system.cpu0.rename.BlockCycles               24041734                       # Number of cycles rename is blocking
system.cpu0.rename.serializeStallCycles         28185                       # count of cycles rename stalled for serializing inst
system.cpu0.rename.RunCycles                  1988490                       # Number of cycles rename is running
system.cpu0.rename.UnblockCycles              2729208                       # Number of cycles rename is unblocking
system.cpu0.rename.RenamedInsts              14912014                       # Number of instructions processed by rename
system.cpu0.rename.ROBFullEvents                56842                       # Number of times rename has blocked due to ROB full
system.cpu0.rename.IQFullEvents               2440205                       # Number of times rename has blocked due to IQ full
system.cpu0.rename.LQFullEvents                157450                       # Number of times rename has blocked due to LQ full
system.cpu0.rename.SQFullEvents                 21321                       # Number of times rename has blocked due to SQ full
system.cpu0.rename.RenamedOperands           17854030                       # Number of destination operands rename has renamed
system.cpu0.rename.RenameLookups             41938030                       # Number of register rename lookups that rename has made
system.cpu0.rename.int_rename_lookups        19317545                       # Number of integer rename lookups
system.cpu0.rename.fp_rename_lookups            80097                       # Number of floating rename lookups
system.cpu0.rename.CommittedMaps              7831427                       # Number of HB maps that are committed
system.cpu0.rename.UndoneMaps                10022602                       # Number of HB maps that are undone due to squashing
system.cpu0.rename.serializingInsts               524                       # count of serializing insts renamed
system.cpu0.rename.tempSerializingInsts           635                       # count of temporary serializing insts renamed
system.cpu0.rename.skidInsts                  4562881                       # count of insts added to the skid buffer
system.cpu0.memDep0.insertedLoads             2722847                       # Number of loads inserted to the mem dependence unit.
system.cpu0.memDep0.insertedStores             128900                       # Number of stores inserted to the mem dependence unit.
system.cpu0.memDep0.conflictingLoads             8809                       # Number of conflicting loads.
system.cpu0.memDep0.conflictingStores            8894                       # Number of conflicting stores.
system.cpu0.iq.iqInstsAdded                  14277243                       # Number of instructions added to the IQ (excludes non-spec)
system.cpu0.iq.iqNonSpecInstsAdded               7238                       # Number of non-speculative instructions added to the IQ
system.cpu0.iq.iqInstsIssued                 10630812                       # Number of instructions issued
system.cpu0.iq.iqSquashedInstsIssued            14519                       # Number of squashed instructions issued
system.cpu0.iq.iqSquashedInstsExamined        7768196                       # Number of squashed instructions iterated over during squash; mainly for profiling
system.cpu0.iq.iqSquashedOperandsExamined     16861286                       # Number of squashed operands that are examined and possibly removed from graph
system.cpu0.iq.iqSquashedNonSpecRemoved          7237                       # Number of squashed non-spec instructions that were removed
system.cpu0.iq.issued_per_cycle::samples     30499956                       # Number of insts issued each cycle
system.cpu0.iq.issued_per_cycle::mean        0.348552                       # Number of insts issued each cycle
system.cpu0.iq.issued_per_cycle::stdev       1.024658                       # Number of insts issued each cycle
system.cpu0.iq.issued_per_cycle::underflows            0      0.00%      0.00% # Number of insts issued each cycle
system.cpu0.iq.issued_per_cycle::0           25970866     85.15%     85.15% # Number of insts issued each cycle
system.cpu0.iq.issued_per_cycle::1            1851708      6.07%     91.22% # Number of insts issued each cycle
system.cpu0.iq.issued_per_cycle::2             998141      3.27%     94.49% # Number of insts issued each cycle
system.cpu0.iq.issued_per_cycle::3             696168      2.28%     96.78% # Number of insts issued each cycle
system.cpu0.iq.issued_per_cycle::4             572802      1.88%     98.65% # Number of insts issued each cycle
system.cpu0.iq.issued_per_cycle::5             184336      0.60%     99.26% # Number of insts issued each cycle
system.cpu0.iq.issued_per_cycle::6             137943      0.45%     99.71% # Number of insts issued each cycle
system.cpu0.iq.issued_per_cycle::7              50164      0.16%     99.88% # Number of insts issued each cycle
system.cpu0.iq.issued_per_cycle::8              37828      0.12%    100.00% # Number of insts issued each cycle
system.cpu0.iq.issued_per_cycle::overflows            0      0.00%    100.00% # Number of insts issued each cycle
system.cpu0.iq.issued_per_cycle::min_value            0                       # Number of insts issued each cycle
system.cpu0.iq.issued_per_cycle::max_value            8                       # Number of insts issued each cycle
system.cpu0.iq.issued_per_cycle::total       30499956                       # Number of insts issued each cycle
system.cpu0.iq.fu_full::No_OpClass                  0      0.00%      0.00% # attempts to use FU when none available
system.cpu0.iq.fu_full::IntAlu                  22698     69.94%     69.94% # attempts to use FU when none available
system.cpu0.iq.fu_full::IntMult                     0      0.00%     69.94% # attempts to use FU when none available
system.cpu0.iq.fu_full::IntDiv                      0      0.00%     69.94% # attempts to use FU when none available
system.cpu0.iq.fu_full::FloatAdd                 2148      6.62%     76.56% # attempts to use FU when none available
system.cpu0.iq.fu_full::FloatCmp                    0      0.00%     76.56% # attempts to use FU when none available
system.cpu0.iq.fu_full::FloatCvt                    0      0.00%     76.56% # attempts to use FU when none available
system.cpu0.iq.fu_full::FloatMult                   0      0.00%     76.56% # attempts to use FU when none available
system.cpu0.iq.fu_full::FloatMultAcc                0      0.00%     76.56% # attempts to use FU when none available
system.cpu0.iq.fu_full::FloatDiv                    0      0.00%     76.56% # attempts to use FU when none available
system.cpu0.iq.fu_full::FloatMisc                   0      0.00%     76.56% # attempts to use FU when none available
system.cpu0.iq.fu_full::FloatSqrt                   0      0.00%     76.56% # attempts to use FU when none available
system.cpu0.iq.fu_full::SimdAdd                     0      0.00%     76.56% # attempts to use FU when none available
system.cpu0.iq.fu_full::SimdAddAcc                  0      0.00%     76.56% # attempts to use FU when none available
system.cpu0.iq.fu_full::SimdAlu                     0      0.00%     76.56% # attempts to use FU when none available
system.cpu0.iq.fu_full::SimdCmp                     0      0.00%     76.56% # attempts to use FU when none available
system.cpu0.iq.fu_full::SimdCvt                     0      0.00%     76.56% # attempts to use FU when none available
system.cpu0.iq.fu_full::SimdMisc                    0      0.00%     76.56% # attempts to use FU when none available
system.cpu0.iq.fu_full::SimdMult                    0      0.00%     76.56% # attempts to use FU when none available
system.cpu0.iq.fu_full::SimdMultAcc                 0      0.00%     76.56% # attempts to use FU when none available
system.cpu0.iq.fu_full::SimdShift                   0      0.00%     76.56% # attempts to use FU when none available
system.cpu0.iq.fu_full::SimdShiftAcc                0      0.00%     76.56% # attempts to use FU when none available
system.cpu0.iq.fu_full::SimdSqrt                    0      0.00%     76.56% # attempts to use FU when none available
system.cpu0.iq.fu_full::SimdFloatAdd                0      0.00%     76.56% # attempts to use FU when none available
system.cpu0.iq.fu_full::SimdFloatAlu                0      0.00%     76.56% # attempts to use FU when none available
system.cpu0.iq.fu_full::SimdFloatCmp                0      0.00%     76.56% # attempts to use FU when none available
system.cpu0.iq.fu_full::SimdFloatCvt                0      0.00%     76.56% # attempts to use FU when none available
system.cpu0.iq.fu_full::SimdFloatDiv                0      0.00%     76.56% # attempts to use FU when none available
system.cpu0.iq.fu_full::SimdFloatMisc               0      0.00%     76.56% # attempts to use FU when none available
system.cpu0.iq.fu_full::SimdFloatMult               0      0.00%     76.56% # attempts to use FU when none available
system.cpu0.iq.fu_full::SimdFloatMultAcc            0      0.00%     76.56% # attempts to use FU when none available
system.cpu0.iq.fu_full::SimdFloatSqrt               0      0.00%     76.56% # attempts to use FU when none available
system.cpu0.iq.fu_full::MemRead                  6534     20.13%     96.70% # attempts to use FU when none available
system.cpu0.iq.fu_full::MemWrite                  528      1.63%     98.32% # attempts to use FU when none available
system.cpu0.iq.fu_full::FloatMemRead              385      1.19%     99.51% # attempts to use FU when none available
system.cpu0.iq.fu_full::FloatMemWrite             159      0.49%    100.00% # attempts to use FU when none available
system.cpu0.iq.fu_full::IprAccess                   0      0.00%    100.00% # attempts to use FU when none available
system.cpu0.iq.fu_full::InstPrefetch                0      0.00%    100.00% # attempts to use FU when none available
system.cpu0.iq.FU_type_0::No_OpClass            26476      0.25%      0.25% # Type of FU issued
system.cpu0.iq.FU_type_0::IntAlu              8731374     82.13%     82.38% # Type of FU issued
system.cpu0.iq.FU_type_0::IntMult                1641      0.02%     82.40% # Type of FU issued
system.cpu0.iq.FU_type_0::IntDiv                19766      0.19%     82.58% # Type of FU issued
system.cpu0.iq.FU_type_0::FloatAdd              27798      0.26%     82.84% # Type of FU issued
system.cpu0.iq.FU_type_0::FloatCmp                  0      0.00%     82.84% # Type of FU issued
system.cpu0.iq.FU_type_0::FloatCvt                  0      0.00%     82.84% # Type of FU issued
system.cpu0.iq.FU_type_0::FloatMult                 0      0.00%     82.84% # Type of FU issued
system.cpu0.iq.FU_type_0::FloatMultAcc              0      0.00%     82.84% # Type of FU issued
system.cpu0.iq.FU_type_0::FloatDiv                  0      0.00%     82.84% # Type of FU issued
system.cpu0.iq.FU_type_0::FloatMisc                 0      0.00%     82.84% # Type of FU issued
system.cpu0.iq.FU_type_0::FloatSqrt                 0      0.00%     82.84% # Type of FU issued
system.cpu0.iq.FU_type_0::SimdAdd                   0      0.00%     82.84% # Type of FU issued
system.cpu0.iq.FU_type_0::SimdAddAcc                0      0.00%     82.84% # Type of FU issued
system.cpu0.iq.FU_type_0::SimdAlu                   0      0.00%     82.84% # Type of FU issued
system.cpu0.iq.FU_type_0::SimdCmp                   0      0.00%     82.84% # Type of FU issued
system.cpu0.iq.FU_type_0::SimdCvt                   0      0.00%     82.84% # Type of FU issued
system.cpu0.iq.FU_type_0::SimdMisc                  0      0.00%     82.84% # Type of FU issued
system.cpu0.iq.FU_type_0::SimdMult                  0      0.00%     82.84% # Type of FU issued
system.cpu0.iq.FU_type_0::SimdMultAcc               0      0.00%     82.84% # Type of FU issued
system.cpu0.iq.FU_type_0::SimdShift                 0      0.00%     82.84% # Type of FU issued
system.cpu0.iq.FU_type_0::SimdShiftAcc              0      0.00%     82.84% # Type of FU issued
system.cpu0.iq.FU_type_0::SimdSqrt                  0      0.00%     82.84% # Type of FU issued
system.cpu0.iq.FU_type_0::SimdFloatAdd              0      0.00%     82.84% # Type of FU issued
system.cpu0.iq.FU_type_0::SimdFloatAlu              0      0.00%     82.84% # Type of FU issued
system.cpu0.iq.FU_type_0::SimdFloatCmp              0      0.00%     82.84% # Type of FU issued
system.cpu0.iq.FU_type_0::SimdFloatCvt              0      0.00%     82.84% # Type of FU issued
system.cpu0.iq.FU_type_0::SimdFloatDiv              0      0.00%     82.84% # Type of FU issued
system.cpu0.iq.FU_type_0::SimdFloatMisc             0      0.00%     82.84% # Type of FU issued
system.cpu0.iq.FU_type_0::SimdFloatMult             0      0.00%     82.84% # Type of FU issued
system.cpu0.iq.FU_type_0::SimdFloatMultAcc            0      0.00%     82.84% # Type of FU issued
system.cpu0.iq.FU_type_0::SimdFloatSqrt             0      0.00%     82.84% # Type of FU issued
system.cpu0.iq.FU_type_0::MemRead             1721622     16.19%     99.04% # Type of FU issued
system.cpu0.iq.FU_type_0::MemWrite              95349      0.90%     99.94% # Type of FU issued
system.cpu0.iq.FU_type_0::FloatMemRead           6235      0.06%     99.99% # Type of FU issued
system.cpu0.iq.FU_type_0::FloatMemWrite           551      0.01%    100.00% # Type of FU issued
system.cpu0.iq.FU_type_0::IprAccess                 0      0.00%    100.00% # Type of FU issued
system.cpu0.iq.FU_type_0::InstPrefetch              0      0.00%    100.00% # Type of FU issued
system.cpu0.iq.FU_type_0::total              10630812                       # Type of FU issued
system.cpu0.iq.rate                          0.348155                       # Inst issue rate
system.cpu0.iq.fu_busy_cnt                      32452                       # FU busy when requested
system.cpu0.iq.fu_busy_rate                  0.003053                       # FU busy rate (busy events/executed inst)
system.cpu0.iq.int_inst_queue_reads          51736101                       # Number of integer instruction queue reads
system.cpu0.iq.int_inst_queue_writes         21980188                       # Number of integer instruction queue writes
system.cpu0.iq.int_inst_queue_wakeup_accesses     10259004                       # Number of integer instruction queue wakeup accesses
system.cpu0.iq.fp_inst_queue_reads              72449                       # Number of floating instruction queue reads
system.cpu0.iq.fp_inst_queue_writes             72506                       # Number of floating instruction queue writes
system.cpu0.iq.fp_inst_queue_wakeup_accesses        30861                       # Number of floating instruction queue wakeup accesses
system.cpu0.iq.vec_inst_queue_reads                 0                       # Number of vector instruction queue reads
system.cpu0.iq.vec_inst_queue_writes                0                       # Number of vector instruction queue writes
system.cpu0.iq.vec_inst_queue_wakeup_accesses            0                       # Number of vector instruction queue wakeup accesses
system.cpu0.iq.int_alu_accesses              10599483                       # Number of integer alu accesses
system.cpu0.iq.fp_alu_accesses                  37305                       # Number of floating point alu accesses
system.cpu0.iq.vec_alu_accesses                     0                       # Number of vector alu accesses
system.cpu0.iew.lsq.thread0.forwLoads            9850                       # Number of loads that had data forwarded from stores
system.cpu0.iew.lsq.thread0.invAddrLoads            0                       # Number of loads ignored due to an invalid address
system.cpu0.iew.lsq.thread0.squashedLoads      1485296                       # Number of loads squashed
system.cpu0.iew.lsq.thread0.ignoredResponses          221                       # Number of memory responses ignored because the instruction is squashed
system.cpu0.iew.lsq.thread0.memOrderViolation           18                       # Number of memory ordering violations
system.cpu0.iew.lsq.thread0.squashedStores        72005                       # Number of stores squashed
system.cpu0.iew.lsq.thread0.invAddrSwpfs            0                       # Number of software prefetches ignored due to an invalid address
system.cpu0.iew.lsq.thread0.blockedLoads            0                       # Number of blocked loads due to partial load-store forwarding
system.cpu0.iew.lsq.thread0.rescheduledLoads           77                       # Number of loads that were rescheduled
system.cpu0.iew.lsq.thread0.cacheBlocked         5264                       # Number of times an access to memory failed due to the cache being blocked
system.cpu0.iew.iewIdleCycles                       0                       # Number of cycles IEW is idle
system.cpu0.iew.iewSquashCycles                115529                       # Number of cycles IEW is squashing
system.cpu0.iew.iewBlockCycles               21544957                       # Number of cycles IEW is blocking
system.cpu0.iew.iewUnblockCycles               477228                       # Number of cycles IEW is unblocking
system.cpu0.iew.iewDispatchedInsts           14284481                       # Number of instructions dispatched to IQ
system.cpu0.iew.iewDispSquashedInsts             6257                       # Number of squashed instructions skipped by dispatch
system.cpu0.iew.iewDispLoadInsts              2722847                       # Number of dispatched load instructions
system.cpu0.iew.iewDispStoreInsts              128900                       # Number of dispatched store instructions
system.cpu0.iew.iewDispNonSpecInsts              2725                       # Number of dispatched non-speculative instructions
system.cpu0.iew.iewIQFullEvents                 27214                       # Number of times the IQ has become full, causing a stall
system.cpu0.iew.iewLSQFullEvents                35860                       # Number of times the LSQ has become full, causing a stall
system.cpu0.iew.memOrderViolationEvents            18                       # Number of memory order violations
system.cpu0.iew.predictedTakenIncorrect         66332                       # Number of branches that were predicted taken incorrectly
system.cpu0.iew.predictedNotTakenIncorrect        60449                       # Number of branches that were predicted not taken incorrectly
system.cpu0.iew.branchMispredicts              126781                       # Number of branch mispredicts detected at execute
system.cpu0.iew.iewExecutedInsts             10464124                       # Number of executed instructions
system.cpu0.iew.iewExecLoadInsts              1654751                       # Number of load instructions executed
system.cpu0.iew.iewExecSquashedInsts           166687                       # Number of squashed instructions skipped in execute
system.cpu0.iew.exec_swp                            0                       # number of swp insts executed
system.cpu0.iew.exec_nop                            0                       # number of nop insts executed
system.cpu0.iew.exec_refs                     1743876                       # number of memory reference insts executed
system.cpu0.iew.exec_branches                 1380458                       # Number of branches executed
system.cpu0.iew.exec_stores                     89125                       # Number of stores executed
system.cpu0.iew.exec_rate                    0.342696                       # Inst execution rate
system.cpu0.iew.wb_sent                      10315675                       # cumulative count of insts sent to commit
system.cpu0.iew.wb_count                     10289865                       # cumulative count of insts written-back
system.cpu0.iew.wb_producers                  7401344                       # num instructions producing a value
system.cpu0.iew.wb_consumers                 12166507                       # num instructions consuming a value
system.cpu0.iew.wb_rate                      0.336989                       # insts written-back per cycle
system.cpu0.iew.wb_fanout                    0.608338                       # average fanout of values written-back
system.cpu0.commit.commitSquashedInsts        7768779                       # The number of squashed insts skipped by commit
system.cpu0.commit.commitNonSpecStalls              1                       # The number of times commit has been forced to stall to communicate backwards
system.cpu0.commit.branchMispredicts           115519                       # The number of times a branch was mispredicted
system.cpu0.commit.committed_per_cycle::samples     29423958                       # Number of insts commited each cycle
system.cpu0.commit.committed_per_cycle::mean     0.221462                       # Number of insts commited each cycle
system.cpu0.commit.committed_per_cycle::stdev     0.841459                       # Number of insts commited each cycle
system.cpu0.commit.committed_per_cycle::underflows            0      0.00%      0.00% # Number of insts commited each cycle
system.cpu0.commit.committed_per_cycle::0     26560588     90.27%     90.27% # Number of insts commited each cycle
system.cpu0.commit.committed_per_cycle::1      1307523      4.44%     94.71% # Number of insts commited each cycle
system.cpu0.commit.committed_per_cycle::2       336867      1.14%     95.86% # Number of insts commited each cycle
system.cpu0.commit.committed_per_cycle::3       900038      3.06%     98.92% # Number of insts commited each cycle
system.cpu0.commit.committed_per_cycle::4       115094      0.39%     99.31% # Number of insts commited each cycle
system.cpu0.commit.committed_per_cycle::5        76255      0.26%     99.57% # Number of insts commited each cycle
system.cpu0.commit.committed_per_cycle::6         9898      0.03%     99.60% # Number of insts commited each cycle
system.cpu0.commit.committed_per_cycle::7         7679      0.03%     99.63% # Number of insts commited each cycle
system.cpu0.commit.committed_per_cycle::8       110016      0.37%    100.00% # Number of insts commited each cycle
system.cpu0.commit.committed_per_cycle::overflows            0      0.00%    100.00% # Number of insts commited each cycle
system.cpu0.commit.committed_per_cycle::min_value            0                       # Number of insts commited each cycle
system.cpu0.commit.committed_per_cycle::max_value            8                       # Number of insts commited each cycle
system.cpu0.commit.committed_per_cycle::total     29423958                       # Number of insts commited each cycle
system.cpu0.commit.committedInsts             3263915                       # Number of instructions committed
system.cpu0.commit.committedOps               6516291                       # Number of ops (including micro ops) committed
system.cpu0.commit.swp_count                        0                       # Number of s/w prefetches committed
system.cpu0.commit.refs                       1294448                       # Number of memory references committed
system.cpu0.commit.loads                      1237553                       # Number of loads committed
system.cpu0.commit.membars                          0                       # Number of memory barriers committed
system.cpu0.commit.branches                   1189609                       # Number of branches committed
system.cpu0.commit.vec_insts                        0                       # Number of committed Vector instructions.
system.cpu0.commit.fp_insts                     23070                       # Number of committed floating point instructions.
system.cpu0.commit.int_insts                  6492970                       # Number of committed integer instructions.
system.cpu0.commit.function_calls               10054                       # Number of function calls committed.
system.cpu0.commit.op_class_0::No_OpClass         7054      0.11%      0.11% # Class of committed instruction
system.cpu0.commit.op_class_0::IntAlu         5177357     79.45%     79.56% # Class of committed instruction
system.cpu0.commit.op_class_0::IntMult            402      0.01%     79.57% # Class of committed instruction
system.cpu0.commit.op_class_0::IntDiv           17362      0.27%     79.83% # Class of committed instruction
system.cpu0.commit.op_class_0::FloatAdd         19668      0.30%     80.14% # Class of committed instruction
system.cpu0.commit.op_class_0::FloatCmp             0      0.00%     80.14% # Class of committed instruction
system.cpu0.commit.op_class_0::FloatCvt             0      0.00%     80.14% # Class of committed instruction
system.cpu0.commit.op_class_0::FloatMult            0      0.00%     80.14% # Class of committed instruction
system.cpu0.commit.op_class_0::FloatMultAcc            0      0.00%     80.14% # Class of committed instruction
system.cpu0.commit.op_class_0::FloatDiv             0      0.00%     80.14% # Class of committed instruction
system.cpu0.commit.op_class_0::FloatMisc            0      0.00%     80.14% # Class of committed instruction
system.cpu0.commit.op_class_0::FloatSqrt            0      0.00%     80.14% # Class of committed instruction
system.cpu0.commit.op_class_0::SimdAdd              0      0.00%     80.14% # Class of committed instruction
system.cpu0.commit.op_class_0::SimdAddAcc            0      0.00%     80.14% # Class of committed instruction
system.cpu0.commit.op_class_0::SimdAlu              0      0.00%     80.14% # Class of committed instruction
system.cpu0.commit.op_class_0::SimdCmp              0      0.00%     80.14% # Class of committed instruction
system.cpu0.commit.op_class_0::SimdCvt              0      0.00%     80.14% # Class of committed instruction
system.cpu0.commit.op_class_0::SimdMisc             0      0.00%     80.14% # Class of committed instruction
system.cpu0.commit.op_class_0::SimdMult             0      0.00%     80.14% # Class of committed instruction
system.cpu0.commit.op_class_0::SimdMultAcc            0      0.00%     80.14% # Class of committed instruction
system.cpu0.commit.op_class_0::SimdShift            0      0.00%     80.14% # Class of committed instruction
system.cpu0.commit.op_class_0::SimdShiftAcc            0      0.00%     80.14% # Class of committed instruction
system.cpu0.commit.op_class_0::SimdSqrt             0      0.00%     80.14% # Class of committed instruction
system.cpu0.commit.op_class_0::SimdFloatAdd            0      0.00%     80.14% # Class of committed instruction
system.cpu0.commit.op_class_0::SimdFloatAlu            0      0.00%     80.14% # Class of committed instruction
system.cpu0.commit.op_class_0::SimdFloatCmp            0      0.00%     80.14% # Class of committed instruction
system.cpu0.commit.op_class_0::SimdFloatCvt            0      0.00%     80.14% # Class of committed instruction
system.cpu0.commit.op_class_0::SimdFloatDiv            0      0.00%     80.14% # Class of committed instruction
system.cpu0.commit.op_class_0::SimdFloatMisc            0      0.00%     80.14% # Class of committed instruction
system.cpu0.commit.op_class_0::SimdFloatMult            0      0.00%     80.14% # Class of committed instruction
system.cpu0.commit.op_class_0::SimdFloatMultAcc            0      0.00%     80.14% # Class of committed instruction
system.cpu0.commit.op_class_0::SimdFloatSqrt            0      0.00%     80.14% # Class of committed instruction
system.cpu0.commit.op_class_0::MemRead        1234151     18.94%     99.07% # Class of committed instruction
system.cpu0.commit.op_class_0::MemWrite         56895      0.87%     99.95% # Class of committed instruction
system.cpu0.commit.op_class_0::FloatMemRead         3402      0.05%    100.00% # Class of committed instruction
system.cpu0.commit.op_class_0::FloatMemWrite            0      0.00%    100.00% # Class of committed instruction
system.cpu0.commit.op_class_0::IprAccess            0      0.00%    100.00% # Class of committed instruction
system.cpu0.commit.op_class_0::InstPrefetch            0      0.00%    100.00% # Class of committed instruction
system.cpu0.commit.op_class_0::total          6516291                       # Class of committed instruction
system.cpu0.commit.bw_lim_events               110016                       # number cycles where commit BW limit reached
system.cpu0.rob.rob_reads                    43599012                       # The number of ROB reads
system.cpu0.rob.rob_writes                   29649010                       # The number of ROB writes
system.cpu0.timesIdled                            415                       # Number of times that the entire CPU went into an idle state and unscheduled itself
system.cpu0.idleCycles                          34732                       # Total number of cycles that the CPU has spent unscheduled due to idling
system.cpu0.committedInsts                    3263915                       # Number of Instructions Simulated
system.cpu0.committedOps                      6516291                       # Number of Ops (including micro ops) Simulated
system.cpu0.cpi                              9.355234                       # CPI: Cycles Per Instruction
system.cpu0.cpi_total                        9.355234                       # CPI: Total CPI of All Threads
system.cpu0.ipc                              0.106892                       # IPC: Instructions Per Cycle
system.cpu0.ipc_total                        0.106892                       # IPC: Total IPC of All Threads
system.cpu0.int_regfile_reads                10711744                       # number of integer regfile reads
system.cpu0.int_regfile_writes                8833919                       # number of integer regfile writes
system.cpu0.fp_regfile_reads                    54676                       # number of floating regfile reads
system.cpu0.fp_regfile_writes                   27211                       # number of floating regfile writes
system.cpu0.cc_regfile_reads                  7464548                       # number of cc regfile reads
system.cpu0.cc_regfile_writes                 3056411                       # number of cc regfile writes
system.cpu0.misc_regfile_reads                5634300                       # number of misc regfile reads
system.cpu0.dcache.tags.pwrStateResidencyTicks::UNDEFINED  15267344125                       # Cumulative time (in ticks) in various power states
system.cpu0.dcache.tags.replacements           674069                       # number of replacements
system.cpu0.dcache.tags.tagsinuse                 512                       # Cycle average of tags in use
system.cpu0.dcache.tags.total_refs             568407                       # Total number of references to valid blocks.
system.cpu0.dcache.tags.sampled_refs           674069                       # Sample count of references to valid blocks.
system.cpu0.dcache.tags.avg_refs             0.843248                       # Average number of references to valid blocks.
system.cpu0.dcache.tags.warmup_cycle                0                       # Cycle when the warmup percentage was hit.
system.cpu0.dcache.tags.occ_blocks::cpu0.data          512                       # Average occupied blocks per requestor
system.cpu0.dcache.tags.occ_percent::cpu0.data            1                       # Average percentage of cache occupancy
system.cpu0.dcache.tags.occ_percent::total            1                       # Average percentage of cache occupancy
system.cpu0.dcache.tags.occ_task_id_blocks::1024          512                       # Occupied blocks per task id
system.cpu0.dcache.tags.age_task_id_blocks_1024::0          143                       # Occupied blocks per task id
system.cpu0.dcache.tags.age_task_id_blocks_1024::1          369                       # Occupied blocks per task id
system.cpu0.dcache.tags.occ_task_id_percent::1024            1                       # Percentage of cache occupancy per task id
system.cpu0.dcache.tags.tag_accesses          7441357                       # Number of tag accesses
system.cpu0.dcache.tags.data_accesses         7441357                       # Number of data accesses
system.cpu0.dcache.pwrStateResidencyTicks::UNDEFINED  15267344125                       # Cumulative time (in ticks) in various power states
system.cpu0.dcache.ReadReq_hits::cpu0.data       513782                       # number of ReadReq hits
system.cpu0.dcache.ReadReq_hits::total         513782                       # number of ReadReq hits
system.cpu0.dcache.WriteReq_hits::cpu0.data        54342                       # number of WriteReq hits
system.cpu0.dcache.WriteReq_hits::total         54342                       # number of WriteReq hits
system.cpu0.dcache.demand_hits::cpu0.data       568124                       # number of demand (read+write) hits
system.cpu0.dcache.demand_hits::total          568124                       # number of demand (read+write) hits
system.cpu0.dcache.overall_hits::cpu0.data       568124                       # number of overall hits
system.cpu0.dcache.overall_hits::total         568124                       # number of overall hits
system.cpu0.dcache.ReadReq_misses::cpu0.data      1121145                       # number of ReadReq misses
system.cpu0.dcache.ReadReq_misses::total      1121145                       # number of ReadReq misses
system.cpu0.dcache.WriteReq_misses::cpu0.data         2553                       # number of WriteReq misses
system.cpu0.dcache.WriteReq_misses::total         2553                       # number of WriteReq misses
system.cpu0.dcache.demand_misses::cpu0.data      1123698                       # number of demand (read+write) misses
system.cpu0.dcache.demand_misses::total       1123698                       # number of demand (read+write) misses
system.cpu0.dcache.overall_misses::cpu0.data      1123698                       # number of overall misses
system.cpu0.dcache.overall_misses::total      1123698                       # number of overall misses
system.cpu0.dcache.ReadReq_miss_latency::cpu0.data  31549835000                       # number of ReadReq miss cycles
system.cpu0.dcache.ReadReq_miss_latency::total  31549835000                       # number of ReadReq miss cycles
system.cpu0.dcache.WriteReq_miss_latency::cpu0.data    106525489                       # number of WriteReq miss cycles
system.cpu0.dcache.WriteReq_miss_latency::total    106525489                       # number of WriteReq miss cycles
system.cpu0.dcache.demand_miss_latency::cpu0.data  31656360489                       # number of demand (read+write) miss cycles
system.cpu0.dcache.demand_miss_latency::total  31656360489                       # number of demand (read+write) miss cycles
system.cpu0.dcache.overall_miss_latency::cpu0.data  31656360489                       # number of overall miss cycles
system.cpu0.dcache.overall_miss_latency::total  31656360489                       # number of overall miss cycles
system.cpu0.dcache.ReadReq_accesses::cpu0.data      1634927                       # number of ReadReq accesses(hits+misses)
system.cpu0.dcache.ReadReq_accesses::total      1634927                       # number of ReadReq accesses(hits+misses)
system.cpu0.dcache.WriteReq_accesses::cpu0.data        56895                       # number of WriteReq accesses(hits+misses)
system.cpu0.dcache.WriteReq_accesses::total        56895                       # number of WriteReq accesses(hits+misses)
system.cpu0.dcache.demand_accesses::cpu0.data      1691822                       # number of demand (read+write) accesses
system.cpu0.dcache.demand_accesses::total      1691822                       # number of demand (read+write) accesses
system.cpu0.dcache.overall_accesses::cpu0.data      1691822                       # number of overall (read+write) accesses
system.cpu0.dcache.overall_accesses::total      1691822                       # number of overall (read+write) accesses
system.cpu0.dcache.ReadReq_miss_rate::cpu0.data     0.685746                       # miss rate for ReadReq accesses
system.cpu0.dcache.ReadReq_miss_rate::total     0.685746                       # miss rate for ReadReq accesses
[...]
system.l2.demand_miss_rate::cpu0.data        0.162039                       # miss rate for demand accesses
system.l2.demand_miss_rate::total            0.162049                       # miss rate for demand accesses
system.l2.overall_miss_rate::cpu0.inst       0.478261                       # miss rate for overall accesses
system.l2.overall_miss_rate::cpu0.data       0.162039                       # miss rate for overall accesses
system.l2.overall_miss_rate::total           0.162049                       # miss rate for overall accesses
system.l2.ReadExReq_avg_miss_latency::cpu0.data 142829.020333                       # average ReadExReq miss latency
system.l2.ReadExReq_avg_miss_latency::total 142829.020333                       # average ReadExReq miss latency
system.l2.ReadCleanReq_avg_miss_latency::cpu0.inst 186636.363636                       # average ReadCleanReq miss latency
system.l2.ReadCleanReq_avg_miss_latency::total 186636.363636                       # average ReadCleanReq miss latency
system.l2.ReadSharedReq_avg_miss_latency::cpu0.data 98094.655147                       # average ReadSharedReq miss latency
system.l2.ReadSharedReq_avg_miss_latency::total 98094.655147                       # average ReadSharedReq miss latency
system.l2.demand_avg_miss_latency::cpu0.inst 186636.363636                       # average overall miss latency
system.l2.demand_avg_miss_latency::cpu0.data 98316.227970                       # average overall miss latency
system.l2.demand_avg_miss_latency::total 98325.121755                       # average overall miss latency
system.l2.overall_avg_miss_latency::cpu0.inst 186636.363636                       # average overall miss latency
system.l2.overall_avg_miss_latency::cpu0.data 98316.227970                       # average overall miss latency
system.l2.overall_avg_miss_latency::total 98325.121755                       # average overall miss latency
system.l2.blocked_cycles::no_mshrs                  0                       # number of cycles access was blocked
system.l2.blocked_cycles::no_targets                0                       # number of cycles access was blocked
system.l2.blocked::no_mshrs                         0                       # number of cycles access was blocked
system.l2.blocked::no_targets                       0                       # number of cycles access was blocked
system.l2.avg_blocked_cycles::no_mshrs            nan                       # average number of cycles each access was blocked
system.l2.avg_blocked_cycles::no_targets          nan                       # average number of cycles each access was blocked
system.l2.writebacks::writebacks                  649                       # number of writebacks
system.l2.writebacks::total                       649                       # number of writebacks
system.l2.ReadExReq_mshr_misses::cpu0.data          541                       # number of ReadExReq MSHR misses
system.l2.ReadExReq_mshr_misses::total            541                       # number of ReadExReq MSHR misses
system.l2.ReadCleanReq_mshr_misses::cpu0.inst           11                       # number of ReadCleanReq MSHR misses
system.l2.ReadCleanReq_mshr_misses::total           11                       # number of ReadCleanReq MSHR misses
system.l2.ReadSharedReq_mshr_misses::cpu0.data       108684                       # number of ReadSharedReq MSHR misses
system.l2.ReadSharedReq_mshr_misses::total       108684                       # number of ReadSharedReq MSHR misses
system.l2.demand_mshr_misses::cpu0.inst            11                       # number of demand (read+write) MSHR misses
system.l2.demand_mshr_misses::cpu0.data        109225                       # number of demand (read+write) MSHR misses
system.l2.demand_mshr_misses::total            109236                       # number of demand (read+write) MSHR misses
system.l2.overall_mshr_misses::cpu0.inst           11                       # number of overall MSHR misses
system.l2.overall_mshr_misses::cpu0.data       109225                       # number of overall MSHR misses
system.l2.overall_mshr_misses::total           109236                       # number of overall MSHR misses
system.l2.ReadExReq_mshr_miss_latency::cpu0.data     71860500                       # number of ReadExReq MSHR miss cycles
system.l2.ReadExReq_mshr_miss_latency::total     71860500                       # number of ReadExReq MSHR miss cycles
system.l2.ReadCleanReq_mshr_miss_latency::cpu0.inst      1943000                       # number of ReadCleanReq MSHR miss cycles
system.l2.ReadCleanReq_mshr_miss_latency::total      1943000                       # number of ReadCleanReq MSHR miss cycles
system.l2.ReadSharedReq_mshr_miss_latency::cpu0.data   9574479500                       # number of ReadSharedReq MSHR miss cycles
system.l2.ReadSharedReq_mshr_miss_latency::total   9574479500                       # number of ReadSharedReq MSHR miss cycles
system.l2.demand_mshr_miss_latency::cpu0.inst      1943000                       # number of demand (read+write) MSHR miss cycles
system.l2.demand_mshr_miss_latency::cpu0.data   9646340000                       # number of demand (read+write) MSHR miss cycles
system.l2.demand_mshr_miss_latency::total   9648283000                       # number of demand (read+write) MSHR miss cycles
system.l2.overall_mshr_miss_latency::cpu0.inst      1943000                       # number of overall MSHR miss cycles
system.l2.overall_mshr_miss_latency::cpu0.data   9646340000                       # number of overall MSHR miss cycles
system.l2.overall_mshr_miss_latency::total   9648283000                       # number of overall MSHR miss cycles
system.l2.ReadExReq_mshr_miss_rate::cpu0.data     0.213160                       # mshr miss rate for ReadExReq accesses
system.l2.ReadExReq_mshr_miss_rate::total     0.213160                       # mshr miss rate for ReadExReq accesses
system.l2.ReadCleanReq_mshr_miss_rate::cpu0.inst     0.478261                       # mshr miss rate for ReadCleanReq accesses
system.l2.ReadCleanReq_mshr_miss_rate::total     0.478261                       # mshr miss rate for ReadCleanReq accesses
system.l2.ReadSharedReq_mshr_miss_rate::cpu0.data     0.161845                       # mshr miss rate for ReadSharedReq accesses
system.l2.ReadSharedReq_mshr_miss_rate::total     0.161845                       # mshr miss rate for ReadSharedReq accesses
system.l2.demand_mshr_miss_rate::cpu0.inst     0.478261                       # mshr miss rate for demand accesses
system.l2.demand_mshr_miss_rate::cpu0.data     0.162039                       # mshr miss rate for demand accesses
system.l2.demand_mshr_miss_rate::total       0.162049                       # mshr miss rate for demand accesses
system.l2.overall_mshr_miss_rate::cpu0.inst     0.478261                       # mshr miss rate for overall accesses
system.l2.overall_mshr_miss_rate::cpu0.data     0.162039                       # mshr miss rate for overall accesses
system.l2.overall_mshr_miss_rate::total      0.162049                       # mshr miss rate for overall accesses
system.l2.ReadExReq_avg_mshr_miss_latency::cpu0.data 132829.020333                       # average ReadExReq mshr miss latency
system.l2.ReadExReq_avg_mshr_miss_latency::total 132829.020333                       # average ReadExReq mshr miss latency
system.l2.ReadCleanReq_avg_mshr_miss_latency::cpu0.inst 176636.363636                       # average ReadCleanReq mshr miss latency
system.l2.ReadCleanReq_avg_mshr_miss_latency::total 176636.363636                       # average ReadCleanReq mshr miss latency
system.l2.ReadSharedReq_avg_mshr_miss_latency::cpu0.data 88094.655147                       # average ReadSharedReq mshr miss latency
system.l2.ReadSharedReq_avg_mshr_miss_latency::total 88094.655147                       # average ReadSharedReq mshr miss latency
system.l2.demand_avg_mshr_miss_latency::cpu0.inst 176636.363636                       # average overall mshr miss latency
system.l2.demand_avg_mshr_miss_latency::cpu0.data 88316.227970                       # average overall mshr miss latency
system.l2.demand_avg_mshr_miss_latency::total 88325.121755                       # average overall mshr miss latency
system.l2.overall_avg_mshr_miss_latency::cpu0.inst 176636.363636                       # average overall mshr miss latency
system.l2.overall_avg_mshr_miss_latency::cpu0.data 88316.227970                       # average overall mshr miss latency
system.l2.overall_avg_mshr_miss_latency::total 88325.121755                       # average overall mshr miss latency
system.membus.snoop_filter.tot_requests        218475                       # Total number of requests made to the snoop filter.
system.membus.snoop_filter.hit_single_requests       109239                       # Number of requests hitting in the snoop filter with a single holder of the requested data.
system.membus.snoop_filter.hit_multi_requests            0                       # Number of requests hitting in the snoop filter with multiple (>1) holders of the requested data.
system.membus.snoop_filter.tot_snoops               0                       # Total number of snoops made to the snoop filter.
system.membus.snoop_filter.hit_single_snoops            0                       # Number of snoops hitting in the snoop filter with a single holder of the requested data.
system.membus.snoop_filter.hit_multi_snoops            0                       # Number of snoops hitting in the snoop filter with multiple (>1) holders of the requested data.
system.membus.pwrStateResidencyTicks::UNDEFINED  15267344125                       # Cumulative time (in ticks) in various power states
system.membus.trans_dist::ReadResp             108695                       # Transaction distribution
system.membus.trans_dist::WritebackDirty          649                       # Transaction distribution
system.membus.trans_dist::CleanEvict           108589                       # Transaction distribution
system.membus.trans_dist::ReadExReq               541                       # Transaction distribution
system.membus.trans_dist::ReadExResp              541                       # Transaction distribution
system.membus.trans_dist::ReadSharedReq        108696                       # Transaction distribution
system.membus.pkt_count_system.l2.mem_side::system.mem_ctrls.port       327711                       # Packet count per connected master and slave (bytes)
system.membus.pkt_count_system.l2.mem_side::total       327711                       # Packet count per connected master and slave (bytes)
system.membus.pkt_count::total                 327711                       # Packet count per connected master and slave (bytes)
system.membus.pkt_size_system.l2.mem_side::system.mem_ctrls.port      7032640                       # Cumulative packet size per connected master and slave (bytes)
system.membus.pkt_size_system.l2.mem_side::total      7032640                       # Cumulative packet size per connected master and slave (bytes)
system.membus.pkt_size::total                 7032640                       # Cumulative packet size per connected master and slave (bytes)
system.membus.snoops                                0                       # Total snoops (count)
system.membus.snoopTraffic                          0                       # Total snoop traffic (bytes)
system.membus.snoop_fanout::samples            109237                       # Request fanout histogram
system.membus.snoop_fanout::mean                    0                       # Request fanout histogram
system.membus.snoop_fanout::stdev                   0                       # Request fanout histogram
system.membus.snoop_fanout::underflows              0      0.00%      0.00% # Request fanout histogram
system.membus.snoop_fanout::0                  109237    100.00%    100.00% # Request fanout histogram
system.membus.snoop_fanout::1                       0      0.00%    100.00% # Request fanout histogram
system.membus.snoop_fanout::overflows               0      0.00%    100.00% # Request fanout histogram
system.membus.snoop_fanout::min_value               0                       # Request fanout histogram
system.membus.snoop_fanout::max_value               0                       # Request fanout histogram
system.membus.snoop_fanout::total              109237                       # Request fanout histogram
system.membus.reqLayer12.occupancy          254594500                       # Layer occupancy (ticks)
system.membus.reqLayer12.utilization              1.7                       # Layer utilization (%)
system.membus.respLayer1.occupancy          599713500                       # Layer occupancy (ticks)
system.membus.respLayer1.utilization              3.9                       # Layer utilization (%)
system.tol2bus.snoop_filter.tot_requests      1348183                       # Total number of requests made to the snoop filter.
system.tol2bus.snoop_filter.hit_single_requests       674090                       # Number of requests hitting in the snoop filter with a single holder of the requested data.
system.tol2bus.snoop_filter.hit_multi_requests         1314                       # Number of requests hitting in the snoop filter with multiple (>1) holders of the requested data.
system.tol2bus.snoop_filter.tot_snoops             13                       # Total number of snoops made to the snoop filter.
system.tol2bus.snoop_filter.hit_single_snoops           13                       # Number of snoops hitting in the snoop filter with a single holder of the requested data.
system.tol2bus.snoop_filter.hit_multi_snoops            0                       # Number of snoops hitting in the snoop filter with multiple (>1) holders of the requested data.
system.tol2bus.pwrStateResidencyTicks::UNDEFINED  15267344125                       # Cumulative time (in ticks) in various power states
system.tol2bus.trans_dist::ReadResp            671554                       # Transaction distribution
system.tol2bus.trans_dist::WritebackDirty        12518                       # Transaction distribution
system.tol2bus.trans_dist::WritebackClean           23                       # Transaction distribution
system.tol2bus.trans_dist::CleanEvict          770802                       # Transaction distribution
system.tol2bus.trans_dist::ReadExReq             2538                       # Transaction distribution
system.tol2bus.trans_dist::ReadExResp            2538                       # Transaction distribution
system.tol2bus.trans_dist::ReadCleanReq            23                       # Transaction distribution
system.tol2bus.trans_dist::ReadSharedReq       671530                       # Transaction distribution
system.tol2bus.pkt_count_system.cpu0.icache.mem_side::system.l2.cpu_side           69                       # Packet count per connected master and slave (bytes)
system.tol2bus.pkt_count_system.cpu0.dcache.mem_side::system.l2.cpu_side      2022206                       # Packet count per connected master and slave (bytes)
system.tol2bus.pkt_count::total               2022275                       # Packet count per connected master and slave (bytes)
system.tol2bus.pkt_size_system.cpu0.icache.mem_side::system.l2.cpu_side         2944                       # Cumulative packet size per connected master and slave (bytes)
system.tol2bus.pkt_size_system.cpu0.dcache.mem_side::system.l2.cpu_side     43900032                       # Cumulative packet size per connected master and slave (bytes)
system.tol2bus.pkt_size::total               43902976                       # Cumulative packet size per connected master and slave (bytes)
system.tol2bus.snoops                          109251                       # Total snoops (count)
system.tol2bus.snoopTraffic                     41536                       # Total snoop traffic (bytes)
system.tol2bus.snoop_fanout::samples           783342                       # Request fanout histogram
system.tol2bus.snoop_fanout::mean            0.001691                       # Request fanout histogram
system.tol2bus.snoop_fanout::stdev           0.041093                       # Request fanout histogram
system.tol2bus.snoop_fanout::underflows             0      0.00%      0.00% # Request fanout histogram
system.tol2bus.snoop_fanout::0                 782017     99.83%     99.83% # Request fanout histogram
system.tol2bus.snoop_fanout::1                   1325      0.17%    100.00% # Request fanout histogram
system.tol2bus.snoop_fanout::2                      0      0.00%    100.00% # Request fanout histogram
system.tol2bus.snoop_fanout::3                      0      0.00%    100.00% # Request fanout histogram
system.tol2bus.snoop_fanout::4                      0      0.00%    100.00% # Request fanout histogram
system.tol2bus.snoop_fanout::5                      0      0.00%    100.00% # Request fanout histogram
system.tol2bus.snoop_fanout::6                      0      0.00%    100.00% # Request fanout histogram
system.tol2bus.snoop_fanout::7                      0      0.00%    100.00% # Request fanout histogram
system.tol2bus.snoop_fanout::8                      0      0.00%    100.00% # Request fanout histogram
system.tol2bus.snoop_fanout::9                      0      0.00%    100.00% # Request fanout histogram
system.tol2bus.snoop_fanout::10                     0      0.00%    100.00% # Request fanout histogram
system.tol2bus.snoop_fanout::11                     0      0.00%    100.00% # Request fanout histogram
system.tol2bus.snoop_fanout::12                     0      0.00%    100.00% # Request fanout histogram
system.tol2bus.snoop_fanout::13                     0      0.00%    100.00% # Request fanout histogram
system.tol2bus.snoop_fanout::14                     0      0.00%    100.00% # Request fanout histogram
system.tol2bus.snoop_fanout::15                     0      0.00%    100.00% # Request fanout histogram
system.tol2bus.snoop_fanout::16                     0      0.00%    100.00% # Request fanout histogram
system.tol2bus.snoop_fanout::17                     0      0.00%    100.00% # Request fanout histogram
system.tol2bus.snoop_fanout::18                     0      0.00%    100.00% # Request fanout histogram
system.tol2bus.snoop_fanout::19                     0      0.00%    100.00% # Request fanout histogram
system.tol2bus.snoop_fanout::20                     0      0.00%    100.00% # Request fanout histogram
system.tol2bus.snoop_fanout::21                     0      0.00%    100.00% # Request fanout histogram
system.tol2bus.snoop_fanout::22                     0      0.00%    100.00% # Request fanout histogram
system.tol2bus.snoop_fanout::23                     0      0.00%    100.00% # Request fanout histogram
system.tol2bus.snoop_fanout::24                     0      0.00%    100.00% # Request fanout histogram
system.tol2bus.snoop_fanout::overflows              0      0.00%    100.00% # Request fanout histogram
system.tol2bus.snoop_fanout::min_value              0                       # Request fanout histogram
system.tol2bus.snoop_fanout::max_value              1                       # Request fanout histogram
system.tol2bus.snoop_fanout::total             783342                       # Request fanout histogram
system.tol2bus.reqLayer0.occupancy          685983500                       # Layer occupancy (ticks)
system.tol2bus.reqLayer0.utilization              4.5                       # Layer utilization (%)
system.tol2bus.respLayer0.occupancy             34500                       # Layer occupancy (ticks)
system.tol2bus.respLayer0.utilization             0.0                       # Layer utilization (%)
system.tol2bus.respLayer1.occupancy        1011103500                       # Layer occupancy (ticks)
system.tol2bus.respLayer1.utilization             6.6                       # Layer utilization (%)

---------- End Simulation Statistics   ----------
