
---------- Begin Simulation Statistics ----------
sim_seconds                                  0.015267                       # Number of seconds simulated
sim_ticks                                 15267344125                       # Number of ticks simulated
final_tick                               2427507715875                       # Number of ticks from beginning of simulation (restored from checkpoints and never reset)
sim_freq                                 1000000000000                       # Frequency of simulated ticks
host_inst_rate                               18219867                       # Simulator instruction rate (inst/s)
host_op_rate                                 33566905                       # Simulator op (including micro ops) rate (op/s)
host_tick_rate                               52841799                       # Simulator tick rate (ticks/s)
host_mem_usage                                3428912                       # Number of bytes of host memory used
host_seconds                                   288.93                       # Real time elapsed on the host
sim_insts                                  5264184162                       # Number of instructions simulated
sim_ops                                    9698335071                       # Number of ops (including micro ops) simulated
system.voltage_domain.voltage                       1                       # Voltage in Volts
system.clk_domain.clock                          1000                       # Clock period in ticks
system.mem_ctrls.pwrStateResidencyTicks::UNDEFINED  15267344125                       # Cumulative time (in ticks) in various power states
system.mem_ctrls.bytes_read::cpu0.inst            128                       # Number of bytes read from this memory
system.mem_ctrls.bytes_read::cpu0.data        1056704                       # Number of bytes read from this memory
system.mem_ctrls.bytes_read::total            1056832                       # Number of bytes read from this memory
system.mem_ctrls.bytes_inst_read::cpu0.inst          128                       # Number of instructions bytes read from this memory
system.mem_ctrls.bytes_inst_read::total           128                       # Number of instructions bytes read from this memory
system.mem_ctrls.bytes_written::writebacks      1013888                       # Number of bytes written to this memory
system.mem_ctrls.bytes_written::total         1013888                       # Number of bytes written to this memory
system.mem_ctrls.num_reads::cpu0.inst               2                       # Number of read requests responded to by this memory
system.mem_ctrls.num_reads::cpu0.data           16511                       # Number of read requests responded to by this memory
system.mem_ctrls.num_reads::total               16513                       # Number of read requests responded to by this memory
system.mem_ctrls.num_writes::writebacks         15842                       # Number of write requests responded to by this memory
system.mem_ctrls.num_writes::total              15842                       # Number of write requests responded to by this memory
system.mem_ctrls.bw_read::cpu0.inst              8384                       # Total read bandwidth from this memory (bytes/s)
system.mem_ctrls.bw_read::cpu0.data          69213348                       # Total read bandwidth from this memory (bytes/s)
system.mem_ctrls.bw_read::total              69221732                       # Total read bandwidth from this memory (bytes/s)
system.mem_ctrls.bw_inst_read::cpu0.inst         8384                       # Instruction read bandwidth from this memory (bytes/s)
system.mem_ctrls.bw_inst_read::total             8384                       # Instruction read bandwidth from this memory (bytes/s)
system.mem_ctrls.bw_write::writebacks        66408931                       # Write bandwidth from this memory (bytes/s)
system.mem_ctrls.bw_write::total             66408931                       # Write bandwidth from this memory (bytes/s)
system.mem_ctrls.bw_total::writebacks        66408931                       # Total bandwidth to/from this memory (bytes/s)
system.mem_ctrls.bw_total::cpu0.inst             8384                       # Total bandwidth to/from this memory (bytes/s)
system.mem_ctrls.bw_total::cpu0.data         69213348                       # Total bandwidth to/from this memory (bytes/s)
system.mem_ctrls.bw_total::total            135630663                       # Total bandwidth to/from this memory (bytes/s)
system.mem_ctrls.readReqs                       16513                       # Number of read requests accepted
system.mem_ctrls.writeReqs                      15842                       # Number of write requests accepted
system.mem_ctrls.readBursts                     16513                       # Number of DRAM read bursts, including those serviced by the write queue
system.mem_ctrls.writeBursts                    15842                       # Number of DRAM write bursts, including those merged in the write queue
system.mem_ctrls.bytesReadDRAM                1056704                       # Total number of bytes read from DRAM
system.mem_ctrls.bytesReadWrQ                     128                       # Total number of bytes read from write queue
system.mem_ctrls.bytesWritten                 1014080                       # Total number of bytes written to DRAM
system.mem_ctrls.bytesReadSys                 1056832                       # Total read bytes from the system interface side
system.mem_ctrls.bytesWrittenSys              1013888                       # Total written bytes from the system interface side
system.mem_ctrls.servicedByWrQ                      2                       # Number of DRAM read bursts serviced by the write queue
system.mem_ctrls.mergedWrBursts                     0                       # Number of DRAM write bursts merged with an existing one
system.mem_ctrls.neitherReadNorWriteReqs            0                       # Number of requests that are neither read nor write
system.mem_ctrls.perBankRdBursts::0              1077                       # Per bank write bursts
system.mem_ctrls.perBankRdBursts::1              1223                       # Per bank write bursts
system.mem_ctrls.perBankRdBursts::2              1040                       # Per bank write bursts
system.mem_ctrls.perBankRdBursts::3              1046                       # Per bank write bursts
system.mem_ctrls.perBankRdBursts::4              1033                       # Per bank write bursts
system.mem_ctrls.perBankRdBursts::5              1046                       # Per bank write bursts
system.mem_ctrls.perBankRdBursts::6              1029                       # Per bank write bursts
system.mem_ctrls.perBankRdBursts::7              1029                       # Per bank write bursts
system.mem_ctrls.perBankRdBursts::8              1034                       # Per bank write bursts
system.mem_ctrls.perBankRdBursts::9               935                       # Per bank write bursts
system.mem_ctrls.perBankRdBursts::10              903                       # Per bank write bursts
system.mem_ctrls.perBankRdBursts::11              893                       # Per bank write bursts
system.mem_ctrls.perBankRdBursts::12             1084                       # Per bank write bursts
system.mem_ctrls.perBankRdBursts::13             1027                       # Per bank write bursts
system.mem_ctrls.perBankRdBursts::14             1103                       # Per bank write bursts
system.mem_ctrls.perBankRdBursts::15             1009                       # Per bank write bursts
system.mem_ctrls.perBankWrBursts::0              1041                       # Per bank write bursts
system.mem_ctrls.perBankWrBursts::1              1168                       # Per bank write bursts
system.mem_ctrls.perBankWrBursts::2               988                       # Per bank write bursts
system.mem_ctrls.perBankWrBursts::3              1007                       # Per bank write bursts
system.mem_ctrls.perBankWrBursts::4               995                       # Per bank write bursts
system.mem_ctrls.perBankWrBursts::5              1010                       # Per bank write bursts
system.mem_ctrls.perBankWrBursts::6               980                       # Per bank write bursts
system.mem_ctrls.perBankWrBursts::7              1001                       # Per bank write bursts
system.mem_ctrls.perBankWrBursts::8               987                       # Per bank write bursts
system.mem_ctrls.perBankWrBursts::9               893                       # Per bank write bursts
system.mem_ctrls.perBankWrBursts::10              868                       # Per bank write bursts
system.mem_ctrls.perBankWrBursts::11              856                       # Per bank write bursts
system.mem_ctrls.perBankWrBursts::12             1036                       # Per bank write bursts
system.mem_ctrls.perBankWrBursts::13              993                       # Per bank write bursts
system.mem_ctrls.perBankWrBursts::14             1066                       # Per bank write bursts
system.mem_ctrls.perBankWrBursts::15              956                       # Per bank write bursts
system.mem_ctrls.numRdRetry                         0                       # Number of times read queue was full causing retry
system.mem_ctrls.numWrRetry                         0                       # Number of times write queue was full causing retry
system.mem_ctrls.totGap                   15267172500                       # Total gap between requests
system.mem_ctrls.readPktSize::0                     0                       # Read request sizes (log2)
system.mem_ctrls.readPktSize::1                     0                       # Read request sizes (log2)
system.mem_ctrls.readPktSize::2                     0                       # Read request sizes (log2)
system.mem_ctrls.readPktSize::3                     0                       # Read request sizes (log2)
system.mem_ctrls.readPktSize::4                     0                       # Read request sizes (log2)
system.mem_ctrls.readPktSize::5                     0                       # Read request sizes (log2)
system.mem_ctrls.readPktSize::6                 16513                       # Read request sizes (log2)
system.mem_ctrls.writePktSize::0                    0                       # Write request sizes (log2)
system.mem_ctrls.writePktSize::1                    0                       # Write request sizes (log2)
system.mem_ctrls.writePktSize::2                    0                       # Write request sizes (log2)
system.mem_ctrls.writePktSize::3                    0                       # Write request sizes (log2)
system.mem_ctrls.writePktSize::4                    0                       # Write request sizes (log2)
system.mem_ctrls.writePktSize::5                    0                       # Write request sizes (log2)
system.mem_ctrls.writePktSize::6                15842                       # Write request sizes (log2)
system.mem_ctrls.rdQLenPdf::0                   15577                       # What read queue length does an incoming req see
system.mem_ctrls.rdQLenPdf::1                     924                       # What read queue length does an incoming req see
system.mem_ctrls.rdQLenPdf::2                      10                       # What read queue length does an incoming req see
system.mem_ctrls.rdQLenPdf::3                       0                       # What read queue length does an incoming req see
system.mem_ctrls.rdQLenPdf::4                       0                       # What read queue length does an incoming req see
system.mem_ctrls.rdQLenPdf::5                       0                       # What read queue length does an incoming req see
system.mem_ctrls.rdQLenPdf::6                       0                       # What read queue length does an incoming req see
system.mem_ctrls.rdQLenPdf::7                       0                       # What read queue length does an incoming req see
system.mem_ctrls.rdQLenPdf::8                       0                       # What read queue length does an incoming req see
system.mem_ctrls.rdQLenPdf::9                       0                       # What read queue length does an incoming req see
system.mem_ctrls.rdQLenPdf::10                      0                       # What read queue length does an incoming req see
system.mem_ctrls.rdQLenPdf::11                      0                       # What read queue length does an incoming req see
system.mem_ctrls.rdQLenPdf::12                      0                       # What read queue length does an incoming req see
system.mem_ctrls.rdQLenPdf::13                      0                       # What read queue length does an incoming req see
system.mem_ctrls.rdQLenPdf::14                      0                       # What read queue length does an incoming req see
system.mem_ctrls.rdQLenPdf::15                      0                       # What read queue length does an incoming req see
system.mem_ctrls.rdQLenPdf::16                      0                       # What read queue length does an incoming req see
system.mem_ctrls.rdQLenPdf::17                      0                       # What read queue length does an incoming req see
system.mem_ctrls.rdQLenPdf::18                      0                       # What read queue length does an incoming req see
system.mem_ctrls.rdQLenPdf::19                      0                       # What read queue length does an incoming req see
system.mem_ctrls.rdQLenPdf::20                      0                       # What read queue length does an incoming req see
system.mem_ctrls.rdQLenPdf::21                      0                       # What read queue length does an incoming req see
system.mem_ctrls.rdQLenPdf::22                      0                       # What read queue length does an incoming req see
system.mem_ctrls.rdQLenPdf::23                      0                       # What read queue length does an incoming req see
system.mem_ctrls.rdQLenPdf::24                      0                       # What read queue length does an incoming req see
system.mem_ctrls.rdQLenPdf::25                      0                       # What read queue length does an incoming req see
system.mem_ctrls.rdQLenPdf::26                      0                       # What read queue length does an incoming req see
system.mem_ctrls.rdQLenPdf::27                      0                       # What read queue length does an incoming req see
system.mem_ctrls.rdQLenPdf::28                      0                       # What read queue length does an incoming req see
system.mem_ctrls.rdQLenPdf::29                      0                       # What read queue length does an incoming req see
system.mem_ctrls.rdQLenPdf::30                      0                       # What read queue length does an incoming req see
system.mem_ctrls.rdQLenPdf::31                      0                       # What read queue length does an incoming req see
system.mem_ctrls.wrQLenPdf::0                       0                       # What write queue length does an incoming req see
system.mem_ctrls.wrQLenPdf::1                       0                       # What write queue length does an incoming req see
system.mem_ctrls.wrQLenPdf::2                       0                       # What write queue length does an incoming req see
system.mem_ctrls.wrQLenPdf::3                       0                       # What write queue length does an incoming req see
system.mem_ctrls.wrQLenPdf::4                       0                       # What write queue length does an incoming req see
system.mem_ctrls.wrQLenPdf::5                       0                       # What write queue length does an incoming req see
system.mem_ctrls.wrQLenPdf::6                       0                       # What write queue length does an incoming req see
system.mem_ctrls.wrQLenPdf::7                       0                       # What write queue length does an incoming req see
system.mem_ctrls.wrQLenPdf::8                       0                       # What write queue length does an incoming req see
system.mem_ctrls.wrQLenPdf::9                       0                       # What write queue length does an incoming req see
system.mem_ctrls.wrQLenPdf::10                      0                       # What write queue length does an incoming req see
system.mem_ctrls.wrQLenPdf::11                      0                       # What write queue length does an incoming req see
system.mem_ctrls.wrQLenPdf::12                      0                       # What write queue length does an incoming req see
system.mem_ctrls.wrQLenPdf::13                      0                       # What write queue length does an incoming req see
system.mem_ctrls.wrQLenPdf::14                      0                       # What write queue length does an incoming req see
system.mem_ctrls.wrQLenPdf::15                    590                       # What write queue length does an incoming req see
system.mem_ctrls.wrQLenPdf::16                    615                       # What write queue length does an incoming req see
system.mem_ctrls.wrQLenPdf::17                    898                       # What write queue length does an incoming req see
system.mem_ctrls.wrQLenPdf::18                    912                       # What write queue length does an incoming req see
system.mem_ctrls.wrQLenPdf::19                    911                       # What write queue length does an incoming req see
system.mem_ctrls.wrQLenPdf::20                    912                       # What write queue length does an incoming req see
system.mem_ctrls.wrQLenPdf::21                    913                       # What write queue length does an incoming req see
system.mem_ctrls.wrQLenPdf::22                    916                       # What write queue length does an incoming req see
system.mem_ctrls.wrQLenPdf::23                    915                       # What write queue length does an incoming req see
system.mem_ctrls.wrQLenPdf::24                    913                       # What write queue length does an incoming req see
system.mem_ctrls.wrQLenPdf::25                    912                       # What write queue length does an incoming req see
system.mem_ctrls.wrQLenPdf::26                    915                       # What write queue length does an incoming req see
system.mem_ctrls.wrQLenPdf::27                    915                       # What write queue length does an incoming req see
system.mem_ctrls.wrQLenPdf::28                    919                       # What write queue length does an incoming req see
system.mem_ctrls.wrQLenPdf::29                    916                       # What write queue length does an incoming req see
system.mem_ctrls.wrQLenPdf::30                    941                       # What write queue length does an incoming req see
system.mem_ctrls.wrQLenPdf::31                    915                       # What write queue length does an incoming req see
system.mem_ctrls.wrQLenPdf::32                    914                       # What write queue length does an incoming req see
system.mem_ctrls.wrQLenPdf::33                      0                       # What write queue length does an incoming req see
system.mem_ctrls.wrQLenPdf::34                      0                       # What write queue length does an incoming req see
system.mem_ctrls.wrQLenPdf::35                      0                       # What write queue length does an incoming req see
system.mem_ctrls.wrQLenPdf::36                      0                       # What write queue length does an incoming req see
system.mem_ctrls.wrQLenPdf::37                      0                       # What write queue length does an incoming req see
system.mem_ctrls.wrQLenPdf::38                      0                       # What write queue length does an incoming req see
system.mem_ctrls.wrQLenPdf::39                      0                       # What write queue length does an incoming req see
system.mem_ctrls.wrQLenPdf::40                      0                       # What write queue length does an incoming req see
system.mem_ctrls.wrQLenPdf::41                      0                       # What write queue length does an incoming req see
system.mem_ctrls.wrQLenPdf::42                      0                       # What write queue length does an incoming req see
system.mem_ctrls.wrQLenPdf::43                      0                       # What write queue length does an incoming req see
system.mem_ctrls.wrQLenPdf::44                      0                       # What write queue length does an incoming req see
system.mem_ctrls.wrQLenPdf::45                      0                       # What write queue length does an incoming req see
system.mem_ctrls.wrQLenPdf::46                      0                       # What write queue length does an incoming req see
system.mem_ctrls.wrQLenPdf::47                      0                       # What write queue length does an incoming req see
system.mem_ctrls.wrQLenPdf::48                      0                       # What write queue length does an incoming req see
system.mem_ctrls.wrQLenPdf::49                      0                       # What write queue length does an incoming req see
system.mem_ctrls.wrQLenPdf::50                      0                       # What write queue length does an incoming req see
system.mem_ctrls.wrQLenPdf::51                      0                       # What write queue length does an incoming req see
system.mem_ctrls.wrQLenPdf::52                      0                       # What write queue length does an incoming req see
system.mem_ctrls.wrQLenPdf::53                      0                       # What write queue length does an incoming req see
system.mem_ctrls.wrQLenPdf::54                      0                       # What write queue length does an incoming req see
system.mem_ctrls.wrQLenPdf::55                      0                       # What write queue length does an incoming req see
system.mem_ctrls.wrQLenPdf::56                      0                       # What write queue length does an incoming req see
system.mem_ctrls.wrQLenPdf::57                      0                       # What write queue length does an incoming req see
system.mem_ctrls.wrQLenPdf::58                      0                       # What write queue length does an incoming req see
system.mem_ctrls.wrQLenPdf::59                      0                       # What write queue length does an incoming req see
system.mem_ctrls.wrQLenPdf::60                      0                       # What write queue length does an incoming req see
system.mem_ctrls.wrQLenPdf::61                      0                       # What write queue length does an incoming req see
system.mem_ctrls.wrQLenPdf::62                      0                       # What write queue length does an incoming req see
system.mem_ctrls.wrQLenPdf::63                      0                       # What write queue length does an incoming req see
system.mem_ctrls.bytesPerActivate::samples        21092                       # Bytes accessed per row activation
system.mem_ctrls.bytesPerActivate::mean     98.172577                       # Bytes accessed per row activation
system.mem_ctrls.bytesPerActivate::gmean    85.308050                       # Bytes accessed per row activation
system.mem_ctrls.bytesPerActivate::stdev    66.834678                       # Bytes accessed per row activation
system.mem_ctrls.bytesPerActivate::64-127        14653     69.47%     69.47% # Bytes accessed per row activation
system.mem_ctrls.bytesPerActivate::128-191         3879     18.39%     87.86% # Bytes accessed per row activation
system.mem_ctrls.bytesPerActivate::192-255         1294      6.14%     94.00% # Bytes accessed per row activation
system.mem_ctrls.bytesPerActivate::256-319          703      3.33%     97.33% # Bytes accessed per row activation
system.mem_ctrls.bytesPerActivate::320-383          336      1.59%     98.92% # Bytes accessed per row activation
system.mem_ctrls.bytesPerActivate::384-447          113      0.54%     99.46% # Bytes accessed per row activation
system.mem_ctrls.bytesPerActivate::448-511           59      0.28%     99.74% # Bytes accessed per row activation
system.mem_ctrls.bytesPerActivate::512-575           31      0.15%     99.89% # Bytes accessed per row activation
system.mem_ctrls.bytesPerActivate::576-639           15      0.07%     99.96% # Bytes accessed per row activation
system.mem_ctrls.bytesPerActivate::640-703            6      0.03%     99.99% # Bytes accessed per row activation
system.mem_ctrls.bytesPerActivate::704-767            1      0.00%     99.99% # Bytes accessed per row activation
system.mem_ctrls.bytesPerActivate::768-831            2      0.01%    100.00% # Bytes accessed per row activation
system.mem_ctrls.bytesPerActivate::total        21092                       # Bytes accessed per row activation
system.mem_ctrls.rdPerTurnAround::samples          912                       # Reads before turning the bus around for writes
system.mem_ctrls.rdPerTurnAround::mean      18.106360                       # Reads before turning the bus around for writes
system.mem_ctrls.rdPerTurnAround::gmean     18.053124                       # Reads before turning the bus around for writes
system.mem_ctrls.rdPerTurnAround::stdev      1.387842                       # Reads before turning the bus around for writes
system.mem_ctrls.rdPerTurnAround::15                8      0.88%      0.88% # Reads before turning the bus around for writes
system.mem_ctrls.rdPerTurnAround::16              152     16.67%     17.54% # Reads before turning the bus around for writes
system.mem_ctrls.rdPerTurnAround::17               99     10.86%     28.40% # Reads before turning the bus around for writes
system.mem_ctrls.rdPerTurnAround::18              304     33.33%     61.73% # Reads before turning the bus around for writes
system.mem_ctrls.rdPerTurnAround::19              221     24.23%     85.96% # Reads before turning the bus around for writes
system.mem_ctrls.rdPerTurnAround::20               89      9.76%     95.72% # Reads before turning the bus around for writes
system.mem_ctrls.rdPerTurnAround::21               32      3.51%     99.23% # Reads before turning the bus around for writes
system.mem_ctrls.rdPerTurnAround::22                6      0.66%     99.89% # Reads before turning the bus around for writes
system.mem_ctrls.rdPerTurnAround::23                1      0.11%    100.00% # Reads before turning the bus around for writes
system.mem_ctrls.rdPerTurnAround::total           912                       # Reads before turning the bus around for writes
system.mem_ctrls.wrPerTurnAround::samples          912                       # Writes before turning the bus around for reads
system.mem_ctrls.wrPerTurnAround::mean      17.373904                       # Writes before turning the bus around for reads
system.mem_ctrls.wrPerTurnAround::gmean     17.345181                       # Writes before turning the bus around for reads
system.mem_ctrls.wrPerTurnAround::stdev      0.989239                       # Writes before turning the bus around for reads
system.mem_ctrls.wrPerTurnAround::16              295     32.35%     32.35% # Writes before turning the bus around for reads
system.mem_ctrls.wrPerTurnAround::17               25      2.74%     35.09% # Writes before turning the bus around for reads
system.mem_ctrls.wrPerTurnAround::18              548     60.09%     95.18% # Writes before turning the bus around for reads
system.mem_ctrls.wrPerTurnAround::19               44      4.82%    100.00% # Writes before turning the bus around for reads
system.mem_ctrls.wrPerTurnAround::total           912                       # Writes before turning the bus around for reads
system.mem_ctrls.totQLat                    453454750                       # Total ticks spent queuing
system.mem_ctrls.totMemAccLat               763036000                       # Total ticks spent from burst creation until serviced by the DRAM
system.mem_ctrls.totBusLat                   82555000                       # Total ticks spent in databus transfers
system.mem_ctrls.avgQLat                     27463.80                       # Average queueing delay per DRAM burst
system.mem_ctrls.avgBusLat                    5000.00                       # Average bus latency per DRAM burst
system.mem_ctrls.avgMemAccLat                46213.80                       # Average memory access latency per DRAM burst
system.mem_ctrls.avgRdBW                        69.21                       # Average DRAM read bandwidth in MiByte/s
system.mem_ctrls.avgWrBW                        66.42                       # Average achieved write bandwidth in MiByte/s
system.mem_ctrls.avgRdBWSys                     69.22                       # Average system read bandwidth in MiByte/s
system.mem_ctrls.avgWrBWSys                     66.41                       # Average system write bandwidth in MiByte/s
system.mem_ctrls.peakBW                      12800.00                       # Theoretical peak bandwidth in MiByte/s
system.mem_ctrls.busUtil                         1.06                       # Data bus utilization in percentage
system.mem_ctrls.busUtilRead                     0.54                       # Data bus utilization in percentage for reads
system.mem_ctrls.busUtilWrite                    0.52                       # Data bus utilization in percentage for writes
system.mem_ctrls.avgRdQLen                       1.08                       # Average read queue length when enqueuing
system.mem_ctrls.avgWrQLen                      24.93                       # Average write queue length when enqueuing
system.mem_ctrls.readRowHits                     6166                       # Number of row buffer hits during reads
system.mem_ctrls.writeRowHits                    5097                       # Number of row buffer hits during writes
system.mem_ctrls.readRowHitRate                 37.34                       # Row buffer hit rate for reads
system.mem_ctrls.writeRowHitRate                32.17                       # Row buffer hit rate for writes
system.mem_ctrls.avgGap                     471864.39                       # Average gap between requests
system.mem_ctrls.pageHitRate                    34.81                       # Row buffer hit rate, read and write combined
system.mem_ctrls_0.actEnergy                 76640760                       # Energy for activate commands per rank (pJ)
system.mem_ctrls_0.preEnergy                 40735530                       # Energy for precharge commands per rank (pJ)
system.mem_ctrls_0.readEnergy                60854220                       # Energy for read commands per rank (pJ)
system.mem_ctrls_0.writeEnergy               42751800                       # Energy for write commands per rank (pJ)
system.mem_ctrls_0.refreshEnergy         1223133600.000000                       # Energy for refresh commands per rank (pJ)
system.mem_ctrls_0.actBackEnergy            993602340                       # Energy for active background per rank (pJ)
system.mem_ctrls_0.preBackEnergy             31997760                       # Energy for precharge background per rank (pJ)
system.mem_ctrls_0.actPowerDownEnergy      4501932960                       # Energy for active power-down per rank (pJ)
system.mem_ctrls_0.prePowerDownEnergy      1147477440                       # Energy for precharge power-down per rank (pJ)
system.mem_ctrls_0.selfRefreshEnergy         62767740                       # Energy for self refresh per rank (pJ)
system.mem_ctrls_0.totalEnergy             8182356180                       # Total energy per rank (pJ)
system.mem_ctrls_0.averagePower            535.938413                       # Core power per rank (mW)
system.mem_ctrls_0.totalIdleTime          13003450000                       # Total Idle time Per DRAM Rank
system.mem_ctrls_0.memoryStateTime::IDLE     24758000                       # Time in different power states
system.mem_ctrls_0.memoryStateTime::REF     517724000                       # Time in different power states
system.mem_ctrls_0.memoryStateTime::SREF    143158250                       # Time in different power states
system.mem_ctrls_0.memoryStateTime::PRE_PDN   2988178250                       # Time in different power states
system.mem_ctrls_0.memoryStateTime::ACT    1720622750                       # Time in different power states
system.mem_ctrls_0.memoryStateTime::ACT_PDN   9872902875                       # Time in different power states
system.mem_ctrls_1.actEnergy                 73963260                       # Energy for activate commands per rank (pJ)
system.mem_ctrls_1.preEnergy                 39308610                       # Energy for precharge commands per rank (pJ)
system.mem_ctrls_1.readEnergy                57034320                       # Energy for read commands per rank (pJ)
system.mem_ctrls_1.writeEnergy               39959100                       # Energy for write commands per rank (pJ)
system.mem_ctrls_1.refreshEnergy         1220675040.000000                       # Energy for refresh commands per rank (pJ)
system.mem_ctrls_1.actBackEnergy           1004680290                       # Energy for active background per rank (pJ)
system.mem_ctrls_1.preBackEnergy             33738240                       # Energy for precharge background per rank (pJ)
system.mem_ctrls_1.actPowerDownEnergy      4381751310                       # Energy for active power-down per rank (pJ)
system.mem_ctrls_1.prePowerDownEnergy      1220616960                       # Energy for precharge power-down per rank (pJ)
system.mem_ctrls_1.selfRefreshEnergy         74495220                       # Energy for self refresh per rank (pJ)
system.mem_ctrls_1.totalEnergy             8146302870                       # Total energy per rank (pJ)
system.mem_ctrls_1.averagePower            533.576947                       # Core power per rank (mW)
system.mem_ctrls_1.totalIdleTime          12975428750                       # Total Idle time Per DRAM Rank
system.mem_ctrls_1.memoryStateTime::IDLE     29573000                       # Time in different power states
system.mem_ctrls_1.memoryStateTime::REF     516702000                       # Time in different power states
system.mem_ctrls_1.memoryStateTime::SREF    188268250                       # Time in different power states
system.mem_ctrls_1.memoryStateTime::PRE_PDN   3178500500                       # Time in different power states
system.mem_ctrls_1.memoryStateTime::ACT    1745050750                       # Time in different power states
system.mem_ctrls_1.memoryStateTime::ACT_PDN   9609249625                       # Time in different power states
system.pwrStateResidencyTicks::UNDEFINED  15267344125                       # Cumulative time (in ticks) in various power states
system.cpu0.branchPred.lookups               13296413                       # Number of BP lookups
system.cpu0.branchPred.condPredicted         13296413                       # Number of conditional branches predicted
system.cpu0.branchPred.condIncorrect          1390929                       # Number of conditional branches incorrect
system.cpu0.branchPred.BTBLookups            11210838                       # Number of BTB lookups
system.cpu0.branchPred.BTBHits                      0                       # Number of BTB hits
system.cpu0.branchPred.BTBCorrect                   0                       # Number of correct BTB predictions (this stat may not work properly.
system.cpu0.branchPred.BTBHitPct             0.000000                       # BTB Hit Percentage
system.cpu0.branchPred.usedRAS                1090208                       # Number of times the RAS was used to get a target.
system.cpu0.branchPred.RASInCorrect            195078                       # Number of incorrect RAS predictions.
system.cpu0.branchPred.indirectLookups       11210838                       # Number of indirect predictor lookups.
system.cpu0.branchPred.indirectHits           2686923                       # Number of indirect target hits.
system.cpu0.branchPred.indirectMisses         8523915                       # Number of indirect misses.
system.cpu0.branchPredindirectMispredicted       918942                       # Number of mispredicted indirect branches.
system.cpu_voltage_domain.voltage                   1                       # Voltage in Volts
system.cpu_clk_domain.clock                       500                       # Clock period in ticks
system.cpu0.dtb.walker.pwrStateResidencyTicks::UNDEFINED  15267344125                       # Cumulative time (in ticks) in various power states
system.cpu0.dtb.rdAccesses                    6984974                       # TLB accesses on read requests
system.cpu0.dtb.wrAccesses                    2422493                       # TLB accesses on write requests
system.cpu0.dtb.rdMisses                        88517                       # TLB misses on read requests
system.cpu0.dtb.wrMisses                        20225                       # TLB misses on write requests
system.cpu0.apic_clk_domain.clock                8000                       # Clock period in ticks
system.cpu0.interrupts.pwrStateResidencyTicks::UNDEFINED  15267344125                       # Cumulative time (in ticks) in various power states
system.cpu0.itb.walker.pwrStateResidencyTicks::UNDEFINED  15267344125                       # Cumulative time (in ticks) in various power states
system.cpu0.itb.rdAccesses                          0                       # TLB accesses on read requests
system.cpu0.itb.wrAccesses                    6624669                       # TLB accesses on write requests
system.cpu0.itb.rdMisses                            0                       # TLB misses on read requests
system.cpu0.itb.wrMisses                         2680                       # TLB misses on write requests
system.cpu0.workload.numSyscalls                   20                       # Number of system calls
system.cpu0.pwrStateResidencyTicks::ON    15267344125                       # Cumulative time (in ticks) in various power states
system.cpu0.numCycles                        30534688                       # number of cpu cycles simulated
system.cpu0.numWorkItemsStarted                     0                       # number of work items this cpu started
system.cpu0.numWorkItemsCompleted                   0                       # number of work items this cpu completed
system.cpu0.fetch.icacheStallCycles           7547864                       # Number of cycles fetch is stalled on an Icache miss
system.cpu0.fetch.Insts                      56925109                       # Number of instructions fetch has processed
system.cpu0.fetch.Branches                   13296413                       # Number of branches that fetch encountered
system.cpu0.fetch.predictedBranches           3777131                       # Number of branches that fetch has predicted taken
system.cpu0.fetch.Cycles                     21570403                       # Number of cycles fetch has run and was not squashing or blocked
system.cpu0.fetch.SquashCycles                2784108                       # Number of cycles fetch has spent squashing
system.cpu0.fetch.MiscStallCycles                 941                       # Number of cycles fetch has spent waiting on interrupts, or bad addresses, or out of MSHRs
system.cpu0.fetch.PendingTrapStallCycles        15029                       # Number of stall cycles due to pending traps
system.cpu0.fetch.PendingQuiesceStallCycles           47                       # Number of stall cycles due to pending quiesce instructions
system.cpu0.fetch.CacheLines                  6621989                       # Number of cache lines fetched
system.cpu0.fetch.IcacheSquashes               326076                       # Number of outstanding Icache misses that were squashed
system.cpu0.fetch.rateDist::samples          30526338                       # Number of instructions fetched each cycle (Total)
system.cpu0.fetch.rateDist::mean             4.049728                       # Number of instructions fetched each cycle (Total)
system.cpu0.fetch.rateDist::stdev            3.669313                       # Number of instructions fetched each cycle (Total)
system.cpu0.fetch.rateDist::underflows              0      0.00%      0.00% # Number of instructions fetched each cycle (Total)
system.cpu0.fetch.rateDist::0                12045021     39.46%     39.46% # Number of instructions fetched each cycle (Total)
system.cpu0.fetch.rateDist::1                  524258      1.72%     41.18% # Number of instructions fetched each cycle (Total)
system.cpu0.fetch.rateDist::2                  899213      2.95%     44.12% # Number of instructions fetched each cycle (Total)
system.cpu0.fetch.rateDist::3                 1347395      4.41%     48.53% # Number of instructions fetched each cycle (Total)
system.cpu0.fetch.rateDist::4                  621277      2.04%     50.57% # Number of instructions fetched each cycle (Total)
system.cpu0.fetch.rateDist::5                 1141138      3.74%     54.31% # Number of instructions fetched each cycle (Total)
system.cpu0.fetch.rateDist::6                 1000634      3.28%     57.59% # Number of instructions fetched each cycle (Total)
system.cpu0.fetch.rateDist::7                  515324      1.69%     59.27% # Number of instructions fetched each cycle (Total)
system.cpu0.fetch.rateDist::8                12432078     40.73%    100.00% # Number of instructions fetched each cycle (Total)
system.cpu0.fetch.rateDist::overflows               0      0.00%    100.00% # Number of instructions fetched each cycle (Total)
system.cpu0.fetch.rateDist::min_value               0                       # Number of instructions fetched each cycle (Total)
system.cpu0.fetch.rateDist::max_value               8                       # Number of instructions fetched each cycle (Total)
system.cpu0.fetch.rateDist::total            30526338                       # Number of instructions fetched each cycle (Total)
system.cpu0.fetch.branchRate                 0.435453                       # Number of branch fetches per cycle
system.cpu0.fetch.rate                       1.864277                       # Number of inst fetches per cycle
system.cpu0.decode.IdleCycles                 5727626                       # Number of cycles decode is idle
system.cpu0.decode.BlockedCycles              8107958                       # Number of cycles decode is blocked
system.cpu0.decode.RunCycles                 13867435                       # Number of cycles decode is running
system.cpu0.decode.UnblockCycles              1431265                       # Number of cycles decode is unblocking
system.cpu0.decode.SquashCycles               1392054                       # Number of cycles decode is squashing
system.cpu0.decode.DecodedInsts             110892357                       # Number of instructions handled by decode
system.cpu0.rename.SquashCycles               1392054                       # Number of cycles rename is squashing
system.cpu0.rename.IdleCycles                 6794974                       # Number of cycles rename is idle
system.cpu0.rename.BlockCycles                6740646                       # Number of cycles rename is blocking
system.cpu0.rename.serializeStallCycles        238627                       # count of cycles rename stalled for serializing inst
system.cpu0.rename.RunCycles                 14020210                       # Number of cycles rename is running
system.cpu0.rename.UnblockCycles              1339827                       # Number of cycles rename is unblocking
system.cpu0.rename.RenamedInsts             103704744                       # Number of instructions processed by rename
system.cpu0.rename.ROBFullEvents                30132                       # Number of times rename has blocked due to ROB full
system.cpu0.rename.IQFullEvents                697898                       # Number of times rename has blocked due to IQ full
system.cpu0.rename.LQFullEvents                   590                       # Number of times rename has blocked due to LQ full
system.cpu0.rename.SQFullEvents                417985                       # Number of times rename has blocked due to SQ full
system.cpu0.rename.RenamedOperands          116656757                       # Number of destination operands rename has renamed
system.cpu0.rename.RenameLookups            257323618                       # Number of register rename lookups that rename has made
system.cpu0.rename.int_rename_lookups       141591911                       # Number of integer rename lookups
system.cpu0.rename.fp_rename_lookups         19090861                       # Number of floating rename lookups
system.cpu0.rename.CommittedMaps             48685332                       # Number of HB maps that are committed
system.cpu0.rename.UndoneMaps                67971396                       # Number of HB maps that are undone due to squashing
system.cpu0.rename.serializingInsts             30749                       # count of serializing insts renamed
system.cpu0.rename.tempSerializingInsts         33217                       # count of temporary serializing insts renamed
system.cpu0.rename.skidInsts                  3176789                       # count of insts added to the skid buffer
system.cpu0.memDep0.insertedLoads             9552953                       # Number of loads inserted to the mem dependence unit.
system.cpu0.memDep0.insertedStores            3363893                       # Number of stores inserted to the mem dependence unit.
system.cpu0.memDep0.conflictingLoads           165394                       # Number of conflicting loads.
system.cpu0.memDep0.conflictingStores          168838                       # Number of conflicting stores.
system.cpu0.iq.iqInstsAdded                  89893707                       # Number of instructions added to the IQ (excludes non-spec)
system.cpu0.iq.iqNonSpecInstsAdded             218452                       # Number of non-speculative instructions added to the IQ
system.cpu0.iq.iqInstsIssued                 71425694                       # Number of instructions issued
system.cpu0.iq.iqSquashedInstsIssued           676476                       # Number of squashed instructions issued
system.cpu0.iq.iqSquashedInstsExamined       48089509                       # Number of squashed instructions iterated over during squash; mainly for profiling
system.cpu0.iq.iqSquashedOperandsExamined     69964055                       # Number of squashed operands that are examined and possibly removed from graph
system.cpu0.iq.iqSquashedNonSpecRemoved        218312                       # Number of squashed non-spec instructions that were removed
system.cpu0.iq.issued_per_cycle::samples     30526338                       # Number of insts issued each cycle
system.cpu0.iq.issued_per_cycle::mean        2.339806                       # Number of insts issued each cycle
system.cpu0.iq.issued_per_cycle::stdev       2.595060                       # Number of insts issued each cycle
system.cpu0.iq.issued_per_cycle::underflows            0      0.00%      0.00% # Number of insts issued each cycle
system.cpu0.iq.issued_per_cycle::0           13237241     43.36%     43.36% # Number of insts issued each cycle
system.cpu0.iq.issued_per_cycle::1            2214696      7.26%     50.62% # Number of insts issued each cycle
system.cpu0.iq.issued_per_cycle::2            2745633      8.99%     59.61% # Number of insts issued each cycle
system.cpu0.iq.issued_per_cycle::3            2339048      7.66%     67.28% # Number of insts issued each cycle
system.cpu0.iq.issued_per_cycle::4            2374659      7.78%     75.05% # Number of insts issued each cycle
system.cpu0.iq.issued_per_cycle::5            2252781      7.38%     82.43% # Number of insts issued each cycle
system.cpu0.iq.issued_per_cycle::6            2660528      8.72%     91.15% # Number of insts issued each cycle
system.cpu0.iq.issued_per_cycle::7            1637137      5.36%     96.51% # Number of insts issued each cycle
system.cpu0.iq.issued_per_cycle::8            1064615      3.49%    100.00% # Number of insts issued each cycle
system.cpu0.iq.issued_per_cycle::overflows            0      0.00%    100.00% # Number of insts issued each cycle
system.cpu0.iq.issued_per_cycle::min_value            0                       # Number of insts issued each cycle
system.cpu0.iq.issued_per_cycle::max_value            8                       # Number of insts issued each cycle
system.cpu0.iq.issued_per_cycle::total       30526338                       # Number of insts issued each cycle
system.cpu0.iq.fu_full::No_OpClass                  0      0.00%      0.00% # attempts to use FU when none available
system.cpu0.iq.fu_full::IntAlu                1444644     92.74%     92.74% # attempts to use FU when none available
system.cpu0.iq.fu_full::IntMult                     0      0.00%     92.74% # attempts to use FU when none available
system.cpu0.iq.fu_full::IntDiv                      0      0.00%     92.74% # attempts to use FU when none available
system.cpu0.iq.fu_full::FloatAdd                81747      5.25%     97.98% # attempts to use FU when none available
system.cpu0.iq.fu_full::FloatCmp                    0      0.00%     97.98% # attempts to use FU when none available
system.cpu0.iq.fu_full::FloatCvt                    0      0.00%     97.98% # attempts to use FU when none available
system.cpu0.iq.fu_full::FloatMult                   0      0.00%     97.98% # attempts to use FU when none available
system.cpu0.iq.fu_full::FloatMultAcc                0      0.00%     97.98% # attempts to use FU when none available
system.cpu0.iq.fu_full::FloatDiv                    0      0.00%     97.98% # attempts to use FU when none available
system.cpu0.iq.fu_full::FloatMisc                   0      0.00%     97.98% # attempts to use FU when none available
system.cpu0.iq.fu_full::FloatSqrt                   0      0.00%     97.98% # attempts to use FU when none available
system.cpu0.iq.fu_full::SimdAdd                     0      0.00%     97.98% # attempts to use FU when none available
system.cpu0.iq.fu_full::SimdAddAcc                  0      0.00%     97.98% # attempts to use FU when none available
system.cpu0.iq.fu_full::SimdAlu                     0      0.00%     97.98% # attempts to use FU when none available
system.cpu0.iq.fu_full::SimdCmp                     0      0.00%     97.98% # attempts to use FU when none available
system.cpu0.iq.fu_full::SimdCvt                     0      0.00%     97.98% # attempts to use FU when none available
system.cpu0.iq.fu_full::SimdMisc                    0      0.00%     97.98% # attempts to use FU when none available
system.cpu0.iq.fu_full::SimdMult                    0      0.00%     97.98% # attempts to use FU when none available
system.cpu0.iq.fu_full::SimdMultAcc                 0      0.00%     97.98% # attempts to use FU when none available
system.cpu0.iq.fu_full::SimdShift                   0      0.00%     97.98% # attempts to use FU when none available
system.cpu0.iq.fu_full::SimdShiftAcc                0      0.00%     97.98% # attempts to use FU when none available
system.cpu0.iq.fu_full::SimdSqrt                    0      0.00%     97.98% # attempts to use FU when none available
system.cpu0.iq.fu_full::SimdFloatAdd                0      0.00%     97.98% # attempts to use FU when none available
system.cpu0.iq.fu_full::SimdFloatAlu                0      0.00%     97.98% # attempts to use FU when none available
system.cpu0.iq.fu_full::SimdFloatCmp                0      0.00%     97.98% # attempts to use FU when none available
system.cpu0.iq.fu_full::SimdFloatCvt                0      0.00%     97.98% # attempts to use FU when none available
system.cpu0.iq.fu_full::SimdFloatDiv                0      0.00%     97.98% # attempts to use FU when none available
system.cpu0.iq.fu_full::SimdFloatMisc               0      0.00%     97.98% # attempts to use FU when none available
system.cpu0.iq.fu_full::SimdFloatMult               0      0.00%     97.98% # attempts to use FU when none available
system.cpu0.iq.fu_full::SimdFloatMultAcc            0      0.00%     97.98% # attempts to use FU when none available
system.cpu0.iq.fu_full::SimdFloatSqrt               0      0.00%     97.98% # attempts to use FU when none available
system.cpu0.iq.fu_full::MemRead                  4838      0.31%     98.29% # attempts to use FU when none available
system.cpu0.iq.fu_full::MemWrite                 3035      0.19%     98.49% # attempts to use FU when none available
system.cpu0.iq.fu_full::FloatMemRead            23098      1.48%     99.97% # attempts to use FU when none available
system.cpu0.iq.fu_full::FloatMemWrite             440      0.03%    100.00% # attempts to use FU when none available
system.cpu0.iq.fu_full::IprAccess                   0      0.00%    100.00% # attempts to use FU when none available
system.cpu0.iq.fu_full::InstPrefetch                0      0.00%    100.00% # attempts to use FU when none available
system.cpu0.iq.FU_type_0::No_OpClass          1824772      2.55%      2.55% # Type of FU issued
system.cpu0.iq.FU_type_0::IntAlu             54362846     76.11%     78.67% # Type of FU issued
system.cpu0.iq.FU_type_0::IntMult                3497      0.00%     78.67% # Type of FU issued
system.cpu0.iq.FU_type_0::IntDiv                76913      0.11%     78.78% # Type of FU issued
system.cpu0.iq.FU_type_0::FloatAdd            4906650      6.87%     85.65% # Type of FU issued
system.cpu0.iq.FU_type_0::FloatCmp                  0      0.00%     85.65% # Type of FU issued
system.cpu0.iq.FU_type_0::FloatCvt                  0      0.00%     85.65% # Type of FU issued
system.cpu0.iq.FU_type_0::FloatMult                 0      0.00%     85.65% # Type of FU issued
system.cpu0.iq.FU_type_0::FloatMultAcc              0      0.00%     85.65% # Type of FU issued
system.cpu0.iq.FU_type_0::FloatDiv                  0      0.00%     85.65% # Type of FU issued
system.cpu0.iq.FU_type_0::FloatMisc                 0      0.00%     85.65% # Type of FU issued
system.cpu0.iq.FU_type_0::FloatSqrt                 0      0.00%     85.65% # Type of FU issued
system.cpu0.iq.FU_type_0::SimdAdd                   0      0.00%     85.65% # Type of FU issued
system.cpu0.iq.FU_type_0::SimdAddAcc                0      0.00%     85.65% # Type of FU issued
system.cpu0.iq.FU_type_0::SimdAlu                   0      0.00%     85.65% # Type of FU issued
system.cpu0.iq.FU_type_0::SimdCmp                   0      0.00%     85.65% # Type of FU issued
system.cpu0.iq.FU_type_0::SimdCvt                   0      0.00%     85.65% # Type of FU issued
system.cpu0.iq.FU_type_0::SimdMisc                  0      0.00%     85.65% # Type of FU issued
system.cpu0.iq.FU_type_0::SimdMult                  0      0.00%     85.65% # Type of FU issued
system.cpu0.iq.FU_type_0::SimdMultAcc               0      0.00%     85.65% # Type of FU issued
system.cpu0.iq.FU_type_0::SimdShift                 0      0.00%     85.65% # Type of FU issued
system.cpu0.iq.FU_type_0::SimdShiftAcc              0      0.00%     85.65% # Type of FU issued
system.cpu0.iq.FU_type_0::SimdSqrt                  0      0.00%     85.65% # Type of FU issued
system.cpu0.iq.FU_type_0::SimdFloatAdd              0      0.00%     85.65% # Type of FU issued
system.cpu0.iq.FU_type_0::SimdFloatAlu              0      0.00%     85.65% # Type of FU issued
system.cpu0.iq.FU_type_0::SimdFloatCmp              0      0.00%     85.65% # Type of FU issued
system.cpu0.iq.FU_type_0::SimdFloatCvt              0      0.00%     85.65% # Type of FU issued
system.cpu0.iq.FU_type_0::SimdFloatDiv              0      0.00%     85.65% # Type of FU issued
system.cpu0.iq.FU_type_0::SimdFloatMisc             0      0.00%     85.65% # Type of FU issued
system.cpu0.iq.FU_type_0::SimdFloatMult             0      0.00%     85.65% # Type of FU issued
system.cpu0.iq.FU_type_0::SimdFloatMultAcc            0      0.00%     85.65% # Type of FU issued
system.cpu0.iq.FU_type_0::SimdFloatSqrt             0      0.00%     85.65% # Type of FU issued
system.cpu0.iq.FU_type_0::MemRead             5235800      7.33%     92.98% # Type of FU issued
system.cpu0.iq.FU_type_0::MemWrite            2632428      3.69%     96.66% # Type of FU issued
system.cpu0.iq.FU_type_0::FloatMemRead        2381546      3.33%    100.00% # Type of FU issued
system.cpu0.iq.FU_type_0::FloatMemWrite          1242      0.00%    100.00% # Type of FU issued
system.cpu0.iq.FU_type_0::IprAccess                 0      0.00%    100.00% # Type of FU issued
system.cpu0.iq.FU_type_0::InstPrefetch              0      0.00%    100.00% # Type of FU issued
system.cpu0.iq.FU_type_0::total              71425694                       # Type of FU issued
system.cpu0.iq.rate                          2.339166                       # Inst issue rate
system.cpu0.iq.fu_busy_cnt                    1557802                       # FU busy when requested
system.cpu0.iq.fu_busy_rate                  0.021810                       # FU busy rate (busy events/executed inst)
system.cpu0.iq.int_inst_queue_reads         160638964                       # Number of integer instruction queue reads
system.cpu0.iq.int_inst_queue_writes        120440500                       # Number of integer instruction queue writes
system.cpu0.iq.int_inst_queue_wakeup_accesses     60487327                       # Number of integer instruction queue wakeup accesses
system.cpu0.iq.fp_inst_queue_reads           14973040                       # Number of floating instruction queue reads
system.cpu0.iq.fp_inst_queue_writes          17761419                       # Number of floating instruction queue writes
system.cpu0.iq.fp_inst_queue_wakeup_accesses      6631826                       # Number of floating instruction queue wakeup accesses
system.cpu0.iq.vec_inst_queue_reads                 0                       # Number of vector instruction queue reads
system.cpu0.iq.vec_inst_queue_writes                0                       # Number of vector instruction queue writes
system.cpu0.iq.vec_inst_queue_wakeup_accesses            0                       # Number of vector instruction queue wakeup accesses
system.cpu0.iq.int_alu_accesses              63664800                       # Number of integer alu accesses
system.cpu0.iq.fp_alu_accesses                7493924                       # Number of floating point alu accesses
system.cpu0.iq.vec_alu_accesses                     0                       # Number of vector alu accesses
system.cpu0.iew.lsq.thread0.forwLoads          212272                       # Number of loads that had data forwarded from stores
system.cpu0.iew.lsq.thread0.invAddrLoads            0                       # Number of loads ignored due to an invalid address
system.cpu0.iew.lsq.thread0.squashedLoads      5787562                       # Number of loads squashed
system.cpu0.iew.lsq.thread0.ignoredResponses         4037                       # Number of memory responses ignored because the instruction is squashed
system.cpu0.iew.lsq.thread0.memOrderViolation          284                       # Number of memory ordering violations
system.cpu0.iew.lsq.thread0.squashedStores      1615321                       # Number of stores squashed
system.cpu0.iew.lsq.thread0.invAddrSwpfs            0                       # Number of software prefetches ignored due to an invalid address
system.cpu0.iew.lsq.thread0.blockedLoads            0                       # Number of blocked loads due to partial load-store forwarding
system.cpu0.iew.lsq.thread0.rescheduledLoads         3453                       # Number of loads that were rescheduled
system.cpu0.iew.lsq.thread0.cacheBlocked           14                       # Number of times an access to memory failed due to the cache being blocked
system.cpu0.iew.iewIdleCycles                       0                       # Number of cycles IEW is idle
system.cpu0.iew.iewSquashCycles               1392054                       # Number of cycles IEW is squashing
system.cpu0.iew.iewBlockCycles                6126407                       # Number of cycles IEW is blocking
system.cpu0.iew.iewUnblockCycles                10192                       # Number of cycles IEW is unblocking
system.cpu0.iew.iewDispatchedInsts           90112159                       # Number of instructions dispatched to IQ
system.cpu0.iew.iewDispSquashedInsts            49104                       # Number of squashed instructions skipped by dispatch
system.cpu0.iew.iewDispLoadInsts              9552953                       # Number of dispatched load instructions
system.cpu0.iew.iewDispStoreInsts             3363893                       # Number of dispatched store instructions
system.cpu0.iew.iewDispNonSpecInsts             89099                       # Number of dispatched non-speculative instructions
system.cpu0.iew.iewIQFullEvents                  4455                       # Number of times the IQ has become full, causing a stall
system.cpu0.iew.iewLSQFullEvents                 4376                       # Number of times the LSQ has become full, causing a stall
system.cpu0.iew.memOrderViolationEvents           284                       # Number of memory order violations
system.cpu0.iew.predictedTakenIncorrect        422801                       # Number of branches that were predicted taken incorrectly
system.cpu0.iew.predictedNotTakenIncorrect      1325264                       # Number of branches that were predicted not taken incorrectly
system.cpu0.iew.branchMispredicts             1748065                       # Number of branch mispredicts detected at execute
system.cpu0.iew.iewExecutedInsts             68334304                       # Number of executed instructions
system.cpu0.iew.iewExecLoadInsts              6949519                       # Number of load instructions executed
system.cpu0.iew.iewExecSquashedInsts          3091390                       # Number of squashed instructions skipped in execute
system.cpu0.iew.exec_swp                            0                       # number of swp insts executed
system.cpu0.iew.exec_nop                            0                       # number of nop insts executed
system.cpu0.iew.exec_refs                     9371352                       # number of memory reference insts executed
system.cpu0.iew.exec_branches                 6293233                       # Number of branches executed
system.cpu0.iew.exec_stores                   2421833                       # Number of stores executed
system.cpu0.iew.exec_rate                    2.237924                       # Inst execution rate
system.cpu0.iew.wb_sent                      67687810                       # cumulative count of insts sent to commit
system.cpu0.iew.wb_count                     67119153                       # cumulative count of insts written-back
system.cpu0.iew.wb_producers                 49654252                       # num instructions producing a value
system.cpu0.iew.wb_consumers                 88148910                       # num instructions consuming a value
system.cpu0.iew.wb_rate                      2.198128                       # insts written-back per cycle
system.cpu0.iew.wb_fanout                    0.563300                       # average fanout of values written-back
system.cpu0.commit.commitSquashedInsts       48089704                       # The number of squashed insts skipped by commit
system.cpu0.commit.commitNonSpecStalls            140                       # The number of times commit has been forced to stall to communicate backwards
system.cpu0.commit.branchMispredicts          1391893                       # The number of times a branch was mispredicted
system.cpu0.commit.committed_per_cycle::samples     23216673                       # Number of insts commited each cycle
system.cpu0.commit.committed_per_cycle::mean     1.810020                       # Number of insts commited each cycle
system.cpu0.commit.committed_per_cycle::stdev     2.424651                       # Number of insts commited each cycle
system.cpu0.commit.committed_per_cycle::underflows            0      0.00%      0.00% # Number of insts commited each cycle
system.cpu0.commit.committed_per_cycle::0     10682314     46.01%     46.01% # Number of insts commited each cycle
system.cpu0.commit.committed_per_cycle::1      3034235     13.07%     59.08% # Number of insts commited each cycle
system.cpu0.commit.committed_per_cycle::2      3405218     14.67%     73.75% # Number of insts commited each cycle
system.cpu0.commit.committed_per_cycle::3      1882930      8.11%     81.86% # Number of insts commited each cycle
system.cpu0.commit.committed_per_cycle::4       970995      4.18%     86.04% # Number of insts commited each cycle
system.cpu0.commit.committed_per_cycle::5       760467      3.28%     89.32% # Number of insts commited each cycle
system.cpu0.commit.committed_per_cycle::6       333957      1.44%     90.75% # Number of insts commited each cycle
system.cpu0.commit.committed_per_cycle::7       333343      1.44%     92.19% # Number of insts commited each cycle
system.cpu0.commit.committed_per_cycle::8      1813214      7.81%    100.00% # Number of insts commited each cycle
system.cpu0.commit.committed_per_cycle::overflows            0      0.00%    100.00% # Number of insts commited each cycle
system.cpu0.commit.committed_per_cycle::min_value            0                       # Number of insts commited each cycle
system.cpu0.commit.committed_per_cycle::max_value            8                       # Number of insts commited each cycle
system.cpu0.commit.committed_per_cycle::total     23216673                       # Number of insts commited each cycle
system.cpu0.commit.committedInsts            19190845                       # Number of instructions committed
system.cpu0.commit.committedOps              42022631                       # Number of ops (including micro ops) committed
system.cpu0.commit.swp_count                        0                       # Number of s/w prefetches committed
system.cpu0.commit.refs                       5513967                       # Number of memory references committed
system.cpu0.commit.loads                      3765393                       # Number of loads committed
system.cpu0.commit.membars                         80                       # Number of memory barriers committed
system.cpu0.commit.branches                   4392375                       # Number of branches committed
system.cpu0.commit.vec_insts                        0                       # Number of committed Vector instructions.
system.cpu0.commit.fp_insts                   3080779                       # Number of committed floating point instructions.
system.cpu0.commit.int_insts                 39387993                       # Number of committed integer instructions.
system.cpu0.commit.function_calls              377472                       # Number of function calls committed.
system.cpu0.commit.op_class_0::No_OpClass       698734      1.66%      1.66% # Class of committed instruction
system.cpu0.commit.op_class_0::IntAlu        33431068     79.55%     81.22% # Class of committed instruction
system.cpu0.commit.op_class_0::IntMult           2041      0.00%     81.22% # Class of committed instruction
system.cpu0.commit.op_class_0::IntDiv           50231      0.12%     81.34% # Class of committed instruction
system.cpu0.commit.op_class_0::FloatAdd       2326590      5.54%     86.88% # Class of committed instruction
system.cpu0.commit.op_class_0::FloatCmp             0      0.00%     86.88% # Class of committed instruction
system.cpu0.commit.op_class_0::FloatCvt             0      0.00%     86.88% # Class of committed instruction
system.cpu0.commit.op_class_0::FloatMult            0      0.00%     86.88% # Class of committed instruction
system.cpu0.commit.op_class_0::FloatMultAcc            0      0.00%     86.88% # Class of committed instruction
system.cpu0.commit.op_class_0::FloatDiv             0      0.00%     86.88% # Class of committed instruction
system.cpu0.commit.op_class_0::FloatMisc            0      0.00%     86.88% # Class of committed instruction
system.cpu0.commit.op_class_0::FloatSqrt            0      0.00%     86.88% # Class of committed instruction
system.cpu0.commit.op_class_0::SimdAdd              0      0.00%     86.88% # Class of committed instruction
system.cpu0.commit.op_class_0::SimdAddAcc            0      0.00%     86.88% # Class of committed instruction
system.cpu0.commit.op_class_0::SimdAlu              0      0.00%     86.88% # Class of committed instruction
system.cpu0.commit.op_class_0::SimdCmp              0      0.00%     86.88% # Class of committed instruction
system.cpu0.commit.op_class_0::SimdCvt              0      0.00%     86.88% # Class of committed instruction
system.cpu0.commit.op_class_0::SimdMisc             0      0.00%     86.88% # Class of committed instruction
system.cpu0.commit.op_class_0::SimdMult             0      0.00%     86.88% # Class of committed instruction
system.cpu0.commit.op_class_0::SimdMultAcc            0      0.00%     86.88% # Class of committed instruction
system.cpu0.commit.op_class_0::SimdShift            0      0.00%     86.88% # Class of committed instruction
system.cpu0.commit.op_class_0::SimdShiftAcc            0      0.00%     86.88% # Class of committed instruction
system.cpu0.commit.op_class_0::SimdSqrt             0      0.00%     86.88% # Class of committed instruction
system.cpu0.commit.op_class_0::SimdFloatAdd            0      0.00%     86.88% # Class of committed instruction
system.cpu0.commit.op_class_0::SimdFloatAlu            0      0.00%     86.88% # Class of committed instruction
system.cpu0.commit.op_class_0::SimdFloatCmp            0      0.00%     86.88% # Class of committed instruction
system.cpu0.commit.op_class_0::SimdFloatCvt            0      0.00%     86.88% # Class of committed instruction
system.cpu0.commit.op_class_0::SimdFloatDiv            0      0.00%     86.88% # Class of committed instruction
system.cpu0.commit.op_class_0::SimdFloatMisc            0      0.00%     86.88% # Class of committed instruction
system.cpu0.commit.op_class_0::SimdFloatMult            0      0.00%     86.88% # Class of committed instruction
system.cpu0.commit.op_class_0::SimdFloatMultAcc            0      0.00%     86.88% # Class of committed instruction
system.cpu0.commit.op_class_0::SimdFloatSqrt            0      0.00%     86.88% # Class of committed instruction
system.cpu0.commit.op_class_0::MemRead        3021605      7.19%     94.07% # Class of committed instruction
system.cpu0.commit.op_class_0::MemWrite       1748574      4.16%     98.23% # Class of committed instruction
system.cpu0.commit.op_class_0::FloatMemRead       743788      1.77%    100.00% # Class of committed instruction
system.cpu0.commit.op_class_0::FloatMemWrite            0      0.00%    100.00% # Class of committed instruction
system.cpu0.commit.op_class_0::IprAccess            0      0.00%    100.00% # Class of committed instruction
system.cpu0.commit.op_class_0::InstPrefetch            0      0.00%    100.00% # Class of committed instruction
system.cpu0.commit.op_class_0::total         42022631                       # Class of committed instruction
system.cpu0.commit.bw_lim_events              1813214                       # number cycles where commit BW limit reached
system.cpu0.rob.rob_reads                   111515794                       # The number of ROB reads
system.cpu0.rob.rob_writes                  187674104                       # The number of ROB writes
system.cpu0.timesIdled                           1962                       # Number of times that the entire CPU went into an idle state and unscheduled itself
system.cpu0.idleCycles                           8350                       # Total number of cycles that the CPU has spent unscheduled due to idling
system.cpu0.committedInsts                   19190845                       # Number of Instructions Simulated
system.cpu0.committedOps                     42022631                       # Number of Ops (including micro ops) Simulated
system.cpu0.cpi                              1.591107                       # CPI: Cycles Per Instruction
system.cpu0.cpi_total                        1.591107                       # CPI: Total CPI of All Threads
system.cpu0.ipc                              0.628493                       # IPC: Instructions Per Cycle
system.cpu0.ipc_total                        0.628493                       # IPC: Total IPC of All Threads
system.cpu0.int_regfile_reads                87595308                       # number of integer regfile reads
system.cpu0.int_regfile_writes               51674376                       # number of integer regfile writes
system.cpu0.fp_regfile_reads                 10488193                       # number of floating regfile reads
system.cpu0.fp_regfile_writes                 6249188                       # number of floating regfile writes
system.cpu0.cc_regfile_reads                 36334526                       # number of cc regfile reads
system.cpu0.cc_regfile_writes                18101424                       # number of cc regfile writes
system.cpu0.misc_regfile_reads               22275789                       # number of misc regfile reads
system.cpu0.dcache.tags.pwrStateResidencyTicks::UNDEFINED  15267344125                       # Cumulative time (in ticks) in various power states
system.cpu0.dcache.tags.replacements            24149                       # number of replacements
system.cpu0.dcache.tags.tagsinuse                 512                       # Cycle average of tags in use
system.cpu0.dcache.tags.total_refs             633576                       # Total number of references to valid blocks.
system.cpu0.dcache.tags.sampled_refs            24149                       # Sample count of references to valid blocks.
system.cpu0.dcache.tags.avg_refs            26.236117                       # Average number of references to valid blocks.
system.cpu0.dcache.tags.warmup_cycle                0                       # Cycle when the warmup percentage was hit.
system.cpu0.dcache.tags.occ_blocks::cpu0.data          512                       # Average occupied blocks per requestor
system.cpu0.dcache.tags.occ_percent::cpu0.data            1                       # Average percentage of cache occupancy
system.cpu0.dcache.tags.occ_percent::total            1                       # Average percentage of cache occupancy
system.cpu0.dcache.tags.occ_task_id_blocks::1024          512                       # Occupied blocks per task id
system.cpu0.dcache.tags.age_task_id_blocks_1024::0           18                       # Occupied blocks per task id
system.cpu0.dcache.tags.age_task_id_blocks_1024::1          128                       # Occupied blocks per task id
system.cpu0.dcache.tags.age_task_id_blocks_1024::2          310                       # Occupied blocks per task id
system.cpu0.dcache.tags.age_task_id_blocks_1024::3            4                       # Occupied blocks per task id
system.cpu0.dcache.tags.age_task_id_blocks_1024::4           52                       # Occupied blocks per task id
system.cpu0.dcache.tags.occ_task_id_percent::1024            1                       # Percentage of cache occupancy per task id
system.cpu0.dcache.tags.tag_accesses         33773793                       # Number of tag accesses
system.cpu0.dcache.tags.data_accesses        33773793                       # Number of data accesses
system.cpu0.dcache.pwrStateResidencyTicks::UNDEFINED  15267344125                       # Cumulative time (in ticks) in various power states
system.cpu0.dcache.ReadReq_hits::cpu0.data      6653461                       # number of ReadReq hits
system.cpu0.dcache.ReadReq_hits::total        6653461                       # number of ReadReq hits
system.cpu0.dcache.WriteReq_hits::cpu0.data      1737834                       # number of WriteReq hits
system.cpu0.dcache.WriteReq_hits::total       1737834                       # number of WriteReq hits
system.cpu0.dcache.demand_hits::cpu0.data      8391295                       # number of demand (read+write) hits
system.cpu0.dcache.demand_hits::total         8391295                       # number of demand (read+write) hits
system.cpu0.dcache.overall_hits::cpu0.data      8391295                       # number of overall hits
system.cpu0.dcache.overall_hits::total        8391295                       # number of overall hits
system.cpu0.dcache.ReadReq_misses::cpu0.data        35198                       # number of ReadReq misses
system.cpu0.dcache.ReadReq_misses::total        35198                       # number of ReadReq misses
system.cpu0.dcache.WriteReq_misses::cpu0.data        10918                       # number of WriteReq misses
system.cpu0.dcache.WriteReq_misses::total        10918                       # number of WriteReq misses
system.cpu0.dcache.demand_misses::cpu0.data        46116                       # number of demand (read+write) misses
system.cpu0.dcache.demand_misses::total         46116                       # number of demand (read+write) misses
system.cpu0.dcache.overall_misses::cpu0.data        46116                       # number of overall misses
system.cpu0.dcache.overall_misses::total        46116                       # number of overall misses
system.cpu0.dcache.ReadReq_miss_latency::cpu0.data   1794232000                       # number of ReadReq miss cycles
system.cpu0.dcache.ReadReq_miss_latency::total   1794232000                       # number of ReadReq miss cycles
system.cpu0.dcache.WriteReq_miss_latency::cpu0.data   1001016500                       # number of WriteReq miss cycles
system.cpu0.dcache.WriteReq_miss_latency::total   1001016500                       # number of WriteReq miss cycles
system.cpu0.dcache.demand_miss_latency::cpu0.data   2795248500                       # number of demand (read+write) miss cycles
system.cpu0.dcache.demand_miss_latency::total   2795248500                       # number of demand (read+write) miss cycles
system.cpu0.dcache.overall_miss_latency::cpu0.data   2795248500                       # number of overall miss cycles
system.cpu0.dcache.overall_miss_latency::total   2795248500                       # number of overall miss cycles
system.cpu0.dcache.ReadReq_accesses::cpu0.data      6688659                       # number of ReadReq accesses(hits+misses)
system.cpu0.dcache.ReadReq_accesses::total      6688659                       # number of ReadReq accesses(hits+misses)
system.cpu0.dcache.WriteReq_accesses::cpu0.data      1748752                       # number of WriteReq accesses(hits+misses)
system.cpu0.dcache.WriteReq_accesses::total      1748752                       # number of WriteReq accesses(hits+misses)
system.cpu0.dcache.demand_accesses::cpu0.data      8437411                       # number of demand (read+write) accesses
system.cpu0.dcache.demand_accesses::total      8437411                       # number of demand (read+write) accesses
system.cpu0.dcache.overall_accesses::cpu0.data      8437411                       # number of overall (read+write) accesses
system.cpu0.dcache.overall_accesses::total      8437411                       # number of overall (read+write) accesses
[...]
system.l2.overall_miss_rate::cpu0.inst       0.000294                       # miss rate for overall accesses
system.l2.overall_miss_rate::cpu0.data       0.683714                       # miss rate for overall accesses
system.l2.overall_miss_rate::total           0.533383                       # miss rate for overall accesses
system.l2.ReadExReq_avg_miss_latency::cpu0.data 92592.772654                       # average ReadExReq miss latency
system.l2.ReadExReq_avg_miss_latency::total 92592.772654                       # average ReadExReq miss latency
system.l2.ReadCleanReq_avg_miss_latency::cpu0.inst        90000                       # average ReadCleanReq miss latency
system.l2.ReadCleanReq_avg_miss_latency::total        90000                       # average ReadCleanReq miss latency
system.l2.ReadSharedReq_avg_miss_latency::cpu0.data 104789.594491                       # average ReadSharedReq miss latency
system.l2.ReadSharedReq_avg_miss_latency::total 104789.594491                       # average ReadSharedReq miss latency
system.l2.demand_avg_miss_latency::cpu0.inst        90000                       # average overall miss latency
system.l2.demand_avg_miss_latency::cpu0.data 97420.234995                       # average overall miss latency
system.l2.demand_avg_miss_latency::total 97419.336281                       # average overall miss latency
system.l2.overall_avg_miss_latency::cpu0.inst        90000                       # average overall miss latency
system.l2.overall_avg_miss_latency::cpu0.data 97420.234995                       # average overall miss latency
system.l2.overall_avg_miss_latency::total 97419.336281                       # average overall miss latency
system.l2.blocked_cycles::no_mshrs                  0                       # number of cycles access was blocked
system.l2.blocked_cycles::no_targets                0                       # number of cycles access was blocked
system.l2.blocked::no_mshrs                         0                       # number of cycles access was blocked
system.l2.blocked::no_targets                       0                       # number of cycles access was blocked
system.l2.avg_blocked_cycles::no_mshrs            nan                       # average number of cycles each access was blocked
system.l2.avg_blocked_cycles::no_targets          nan                       # average number of cycles each access was blocked
system.l2.writebacks::writebacks                15842                       # number of writebacks
system.l2.writebacks::total                     15842                       # number of writebacks
system.l2.ReadExReq_mshr_misses::cpu0.data         9976                       # number of ReadExReq MSHR misses
system.l2.ReadExReq_mshr_misses::total           9976                       # number of ReadExReq MSHR misses
system.l2.ReadCleanReq_mshr_misses::cpu0.inst            2                       # number of ReadCleanReq MSHR misses
system.l2.ReadCleanReq_mshr_misses::total            2                       # number of ReadCleanReq MSHR misses
system.l2.ReadSharedReq_mshr_misses::cpu0.data         6535                       # number of ReadSharedReq MSHR misses
system.l2.ReadSharedReq_mshr_misses::total         6535                       # number of ReadSharedReq MSHR misses
system.l2.demand_mshr_misses::cpu0.inst             2                       # number of demand (read+write) MSHR misses
system.l2.demand_mshr_misses::cpu0.data         16511                       # number of demand (read+write) MSHR misses
system.l2.demand_mshr_misses::total             16513                       # number of demand (read+write) MSHR misses
system.l2.overall_mshr_misses::cpu0.inst            2                       # number of overall MSHR misses
system.l2.overall_mshr_misses::cpu0.data        16511                       # number of overall MSHR misses
system.l2.overall_mshr_misses::total            16513                       # number of overall MSHR misses
system.l2.ReadExReq_mshr_miss_latency::cpu0.data    823945500                       # number of ReadExReq MSHR miss cycles
system.l2.ReadExReq_mshr_miss_latency::total    823945500                       # number of ReadExReq MSHR miss cycles
system.l2.ReadCleanReq_mshr_miss_latency::cpu0.inst       160000                       # number of ReadCleanReq MSHR miss cycles
system.l2.ReadCleanReq_mshr_miss_latency::total       160000                       # number of ReadCleanReq MSHR miss cycles
system.l2.ReadSharedReq_mshr_miss_latency::cpu0.data    619450000                       # number of ReadSharedReq MSHR miss cycles
system.l2.ReadSharedReq_mshr_miss_latency::total    619450000                       # number of ReadSharedReq MSHR miss cycles
system.l2.demand_mshr_miss_latency::cpu0.inst       160000                       # number of demand (read+write) MSHR miss cycles
system.l2.demand_mshr_miss_latency::cpu0.data   1443395500                       # number of demand (read+write) MSHR miss cycles
system.l2.demand_mshr_miss_latency::total   1443555500                       # number of demand (read+write) MSHR miss cycles
system.l2.overall_mshr_miss_latency::cpu0.inst       160000                       # number of overall MSHR miss cycles
system.l2.overall_mshr_miss_latency::cpu0.data   1443395500                       # number of overall MSHR miss cycles
system.l2.overall_mshr_miss_latency::total   1443555500                       # number of overall MSHR miss cycles
system.l2.ReadExReq_mshr_miss_rate::cpu0.data     0.966760                       # mshr miss rate for ReadExReq accesses
system.l2.ReadExReq_mshr_miss_rate::total     0.966760                       # mshr miss rate for ReadExReq accesses
system.l2.ReadCleanReq_mshr_miss_rate::cpu0.inst     0.000294                       # mshr miss rate for ReadCleanReq accesses
system.l2.ReadCleanReq_mshr_miss_rate::total     0.000294                       # mshr miss rate for ReadCleanReq accesses
system.l2.ReadSharedReq_mshr_miss_rate::cpu0.data     0.472523                       # mshr miss rate for ReadSharedReq accesses
system.l2.ReadSharedReq_mshr_miss_rate::total     0.472523                       # mshr miss rate for ReadSharedReq accesses
system.l2.demand_mshr_miss_rate::cpu0.inst     0.000294                       # mshr miss rate for demand accesses
system.l2.demand_mshr_miss_rate::cpu0.data     0.683714                       # mshr miss rate for demand accesses
system.l2.demand_mshr_miss_rate::total       0.533383                       # mshr miss rate for demand accesses
system.l2.overall_mshr_miss_rate::cpu0.inst     0.000294                       # mshr miss rate for overall accesses
system.l2.overall_mshr_miss_rate::cpu0.data     0.683714                       # mshr miss rate for overall accesses
system.l2.overall_mshr_miss_rate::total      0.533383                       # mshr miss rate for overall accesses
system.l2.ReadExReq_avg_mshr_miss_latency::cpu0.data 82592.772654                       # average ReadExReq mshr miss latency
system.l2.ReadExReq_avg_mshr_miss_latency::total 82592.772654                       # average ReadExReq mshr miss latency
system.l2.ReadCleanReq_avg_mshr_miss_latency::cpu0.inst        80000                       # average ReadCleanReq mshr miss latency
system.l2.ReadCleanReq_avg_mshr_miss_latency::total        80000                       # average ReadCleanReq mshr miss latency
system.l2.ReadSharedReq_avg_mshr_miss_latency::cpu0.data 94789.594491                       # average ReadSharedReq mshr miss latency
system.l2.ReadSharedReq_avg_mshr_miss_latency::total 94789.594491                       # average ReadSharedReq mshr miss latency
system.l2.demand_avg_mshr_miss_latency::cpu0.inst        80000                       # average overall mshr miss latency
system.l2.demand_avg_mshr_miss_latency::cpu0.data 87420.234995                       # average overall mshr miss latency
system.l2.demand_avg_mshr_miss_latency::total 87419.336281                       # average overall mshr miss latency
system.l2.overall_avg_mshr_miss_latency::cpu0.inst        80000                       # average overall mshr miss latency
system.l2.overall_avg_mshr_miss_latency::cpu0.data 87420.234995                       # average overall mshr miss latency
system.l2.overall_avg_mshr_miss_latency::total 87419.336281                       # average overall mshr miss latency
system.membus.snoop_filter.tot_requests         33022                       # Total number of requests made to the snoop filter.
system.membus.snoop_filter.hit_single_requests        16512                       # Number of requests hitting in the snoop filter with a single holder of the requested data.
system.membus.snoop_filter.hit_multi_requests            0                       # Number of requests hitting in the snoop filter with multiple (>1) holders of the requested data.
system.membus.snoop_filter.tot_snoops               0                       # Total number of snoops made to the snoop filter.
system.membus.snoop_filter.hit_single_snoops            0                       # Number of snoops hitting in the snoop filter with a single holder of the requested data.
system.membus.snoop_filter.hit_multi_snoops            0                       # Number of snoops hitting in the snoop filter with multiple (>1) holders of the requested data.
system.membus.pwrStateResidencyTicks::UNDEFINED  15267344125                       # Cumulative time (in ticks) in various power states
system.membus.trans_dist::ReadResp               6537                       # Transaction distribution
system.membus.trans_dist::WritebackDirty        15842                       # Transaction distribution
system.membus.trans_dist::CleanEvict              667                       # Transaction distribution
system.membus.trans_dist::ReadExReq              9976                       # Transaction distribution
system.membus.trans_dist::ReadExResp             9976                       # Transaction distribution
system.membus.trans_dist::ReadSharedReq          6537                       # Transaction distribution
system.membus.pkt_count_system.l2.mem_side::system.mem_ctrls.port        49535                       # Packet count per connected master and slave (bytes)
system.membus.pkt_count_system.l2.mem_side::total        49535                       # Packet count per connected master and slave (bytes)
system.membus.pkt_count::total                  49535                       # Packet count per connected master and slave (bytes)
system.membus.pkt_size_system.l2.mem_side::system.mem_ctrls.port      2070720                       # Cumulative packet size per connected master and slave (bytes)
system.membus.pkt_size_system.l2.mem_side::total      2070720                       # Cumulative packet size per connected master and slave (bytes)
system.membus.pkt_size::total                 2070720                       # Cumulative packet size per connected master and slave (bytes)
system.membus.snoops                                0                       # Total snoops (count)
system.membus.snoopTraffic                          0                       # Total snoop traffic (bytes)
system.membus.snoop_fanout::samples             16513                       # Request fanout histogram
system.membus.snoop_fanout::mean                    0                       # Request fanout histogram
system.membus.snoop_fanout::stdev                   0                       # Request fanout histogram
system.membus.snoop_fanout::underflows              0      0.00%      0.00% # Request fanout histogram
system.membus.snoop_fanout::0                   16513    100.00%    100.00% # Request fanout histogram
system.membus.snoop_fanout::1                       0      0.00%    100.00% # Request fanout histogram
system.membus.snoop_fanout::overflows               0      0.00%    100.00% # Request fanout histogram
system.membus.snoop_fanout::min_value               0                       # Request fanout histogram
system.membus.snoop_fanout::max_value               0                       # Request fanout histogram
system.membus.snoop_fanout::total               16513                       # Request fanout histogram
system.membus.reqLayer12.occupancy          100462500                       # Layer occupancy (ticks)
system.membus.reqLayer12.utilization              0.7                       # Layer utilization (%)
system.membus.respLayer1.occupancy           89488500                       # Layer occupancy (ticks)
system.membus.respLayer1.utilization              0.6                       # Layer utilization (%)
system.tol2bus.snoop_filter.tot_requests        61982                       # Total number of requests made to the snoop filter.
system.tol2bus.snoop_filter.hit_single_requests        30974                       # Number of requests hitting in the snoop filter with a single holder of the requested data.
system.tol2bus.snoop_filter.hit_multi_requests          106                       # Number of requests hitting in the snoop filter with multiple (>1) holders of the requested data.
system.tol2bus.snoop_filter.tot_snoops              5                       # Total number of snoops made to the snoop filter.
system.tol2bus.snoop_filter.hit_single_snoops            5                       # Number of snoops hitting in the snoop filter with a single holder of the requested data.
system.tol2bus.snoop_filter.hit_multi_snoops            0                       # Number of snoops hitting in the snoop filter with multiple (>1) holders of the requested data.
system.tol2bus.pwrStateResidencyTicks::UNDEFINED  15267344125                       # Cumulative time (in ticks) in various power states
system.tol2bus.trans_dist::ReadResp             20671                       # Transaction distribution
system.tol2bus.trans_dist::WritebackDirty        35428                       # Transaction distribution
system.tol2bus.trans_dist::WritebackClean         6822                       # Transaction distribution
system.tol2bus.trans_dist::CleanEvict            5235                       # Transaction distribution
system.tol2bus.trans_dist::UpgradeReq              21                       # Transaction distribution
system.tol2bus.trans_dist::UpgradeResp             21                       # Transaction distribution
system.tol2bus.trans_dist::ReadExReq            10319                       # Transaction distribution
system.tol2bus.trans_dist::ReadExResp           10319                       # Transaction distribution
system.tol2bus.trans_dist::ReadCleanReq          6841                       # Transaction distribution
system.tol2bus.trans_dist::ReadSharedReq        13830                       # Transaction distribution
system.tol2bus.pkt_count_system.cpu0.icache.mem_side::system.l2.cpu_side        20473                       # Packet count per connected master and slave (bytes)
system.tol2bus.pkt_count_system.cpu0.dcache.mem_side::system.l2.cpu_side        72489                       # Packet count per connected master and slave (bytes)
system.tol2bus.pkt_count::total                 92962                       # Packet count per connected master and slave (bytes)
system.tol2bus.pkt_size_system.cpu0.icache.mem_side::system.l2.cpu_side       872448                       # Cumulative packet size per connected master and slave (bytes)
system.tol2bus.pkt_size_system.cpu0.dcache.mem_side::system.l2.cpu_side      2799040                       # Cumulative packet size per connected master and slave (bytes)
system.tol2bus.pkt_size::total                3671488                       # Cumulative packet size per connected master and slave (bytes)
system.tol2bus.snoops                           16545                       # Total snoops (count)
system.tol2bus.snoopTraffic                   1015872                       # Total snoop traffic (bytes)
system.tol2bus.snoop_fanout::samples            47525                       # Request fanout histogram
system.tol2bus.snoop_fanout::mean            0.002357                       # Request fanout histogram
system.tol2bus.snoop_fanout::stdev           0.048489                       # Request fanout histogram
system.tol2bus.snoop_fanout::underflows             0      0.00%      0.00% # Request fanout histogram
system.tol2bus.snoop_fanout::0                  47413     99.76%     99.76% # Request fanout histogram
system.tol2bus.snoop_fanout::1                    112      0.24%    100.00% # Request fanout histogram
system.tol2bus.snoop_fanout::2                      0      0.00%    100.00% # Request fanout histogram
system.tol2bus.snoop_fanout::3                      0      0.00%    100.00% # Request fanout histogram
system.tol2bus.snoop_fanout::4                      0      0.00%    100.00% # Request fanout histogram
system.tol2bus.snoop_fanout::5                      0      0.00%    100.00% # Request fanout histogram
system.tol2bus.snoop_fanout::6                      0      0.00%    100.00% # Request fanout histogram
system.tol2bus.snoop_fanout::7                      0      0.00%    100.00% # Request fanout histogram
system.tol2bus.snoop_fanout::8                      0      0.00%    100.00% # Request fanout histogram
system.tol2bus.snoop_fanout::9                      0      0.00%    100.00% # Request fanout histogram
system.tol2bus.snoop_fanout::10                     0      0.00%    100.00% # Request fanout histogram
system.tol2bus.snoop_fanout::11                     0      0.00%    100.00% # Request fanout histogram
system.tol2bus.snoop_fanout::12                     0      0.00%    100.00% # Request fanout histogram
system.tol2bus.snoop_fanout::13                     0      0.00%    100.00% # Request fanout histogram
system.tol2bus.snoop_fanout::14                     0      0.00%    100.00% # Request fanout histogram
system.tol2bus.snoop_fanout::15                     0      0.00%    100.00% # Request fanout histogram
system.tol2bus.snoop_fanout::16                     0      0.00%    100.00% # Request fanout histogram
system.tol2bus.snoop_fanout::17                     0      0.00%    100.00% # Request fanout histogram
system.tol2bus.snoop_fanout::18                     0      0.00%    100.00% # Request fanout histogram
system.tol2bus.snoop_fanout::19                     0      0.00%    100.00% # Request fanout histogram
system.tol2bus.snoop_fanout::20                     0      0.00%    100.00% # Request fanout histogram
system.tol2bus.snoop_fanout::21                     0      0.00%    100.00% # Request fanout histogram
system.tol2bus.snoop_fanout::22                     0      0.00%    100.00% # Request fanout histogram
system.tol2bus.snoop_fanout::23                     0      0.00%    100.00% # Request fanout histogram
system.tol2bus.snoop_fanout::24                     0      0.00%    100.00% # Request fanout histogram
system.tol2bus.snoop_fanout::overflows              0      0.00%    100.00% # Request fanout histogram
system.tol2bus.snoop_fanout::min_value              0                       # Request fanout histogram
system.tol2bus.snoop_fanout::max_value              1                       # Request fanout histogram
system.tol2bus.snoop_fanout::total              47525                       # Request fanout histogram
system.tol2bus.reqLayer0.occupancy           57399000                       # Layer occupancy (ticks)
system.tol2bus.reqLayer0.utilization              0.4                       # Layer utilization (%)
system.tol2bus.respLayer0.occupancy          10261999                       # Layer occupancy (ticks)
system.tol2bus.respLayer0.utilization             0.1                       # Layer utilization (%)
system.tol2bus.respLayer1.occupancy          36237992                       # Layer occupancy (ticks)
system.tol2bus.respLayer1.utilization             0.2                       # Layer utilization (%)

---------- End Simulation Statistics   ----------
