
---------- Begin Simulation Statistics ----------
sim_seconds                                  0.015267                       # Number of seconds simulated
sim_ticks                                 15267344125                       # Number of ticks simulated
final_tick                               2732854598375                       # Number of ticks from beginning of simulation (restored from checkpoints and never reset)
sim_freq                                 1000000000000                       # Frequency of simulated ticks
host_inst_rate                               25756143                       # Simulator instruction rate (inst/s)
host_op_rate                                 47692240                       # Simulator op (including micro ops) rate (op/s)
host_tick_rate                               71130442                       # Simulator tick rate (ticks/s)
host_mem_usage                                3428912                       # Number of bytes of host memory used
host_seconds                                   214.64                       # Real time elapsed on the host
sim_insts                                  5528263415                       # Number of instructions simulated
sim_ops                                   10236598309                       # Number of ops (including micro ops) simulated
system.voltage_domain.voltage                       1                       # Voltage in Volts
system.clk_domain.clock                          1000                       # Clock period in ticks
system.mem_ctrls.pwrStateResidencyTicks::UNDEFINED  15267344125                       # Cumulative time (in ticks) in various power states
system.mem_ctrls.bytes_read::cpu0.inst             64                       # Number of bytes read from this memory
system.mem_ctrls.bytes_read::cpu0.data         340800                       # Number of bytes read from this memory
system.mem_ctrls.bytes_read::total             340864                       # Number of bytes read from this memory
system.mem_ctrls.bytes_inst_read::cpu0.inst           64                       # Number of instructions bytes read from this memory
system.mem_ctrls.bytes_inst_read::total            64                       # Number of instructions bytes read from this memory
system.mem_ctrls.bytes_written::writebacks       150912                       # Number of bytes written to this memory
system.mem_ctrls.bytes_written::total          150912                       # Number of bytes written to this memory
system.mem_ctrls.num_reads::cpu0.inst               1                       # Number of read requests responded to by this memory
system.mem_ctrls.num_reads::cpu0.data            5325                       # Number of read requests responded to by this memory
system.mem_ctrls.num_reads::total                5326                       # Number of read requests responded to by this memory
system.mem_ctrls.num_writes::writebacks          2358                       # Number of write requests responded to by this memory
system.mem_ctrls.num_writes::total               2358                       # Number of write requests responded to by this memory
system.mem_ctrls.bw_read::cpu0.inst              4192                       # Total read bandwidth from this memory (bytes/s)
system.mem_ctrls.bw_read::cpu0.data          22322154                       # Total read bandwidth from this memory (bytes/s)
system.mem_ctrls.bw_read::total              22326346                       # Total read bandwidth from this memory (bytes/s)
system.mem_ctrls.bw_inst_read::cpu0.inst         4192                       # Instruction read bandwidth from this memory (bytes/s)
system.mem_ctrls.bw_inst_read::total             4192                       # Instruction read bandwidth from this memory (bytes/s)
system.mem_ctrls.bw_write::writebacks         9884627                       # Write bandwidth from this memory (bytes/s)
system.mem_ctrls.bw_write::total              9884627                       # Write bandwidth from this memory (bytes/s)
system.mem_ctrls.bw_total::writebacks         9884627                       # Total bandwidth to/from this memory (bytes/s)
system.mem_ctrls.bw_total::cpu0.inst             4192                       # Total bandwidth to/from this memory (bytes/s)
system.mem_ctrls.bw_total::cpu0.data         22322154                       # Total bandwidth to/from this memory (bytes/s)
system.mem_ctrls.bw_total::total             32210972                       # Total bandwidth to/from this memory (bytes/s)
system.mem_ctrls.readReqs                        5326                       # Number of read requests accepted
system.mem_ctrls.writeReqs                       2358                       # Number of write requests accepted
system.mem_ctrls.readBursts                      5326                       # Number of DRAM read bursts, including those serviced by the write queue
system.mem_ctrls.writeBursts                     2358                       # Number of DRAM write bursts, including those merged in the write queue
system.mem_ctrls.bytesReadDRAM                 340864                       # Total number of bytes read from DRAM
system.mem_ctrls.bytesReadWrQ                       0                       # Total number of bytes read from write queue
system.mem_ctrls.bytesWritten                  151424                       # Total number of bytes written to DRAM
system.mem_ctrls.bytesReadSys                  340864                       # Total read bytes from the system interface side
system.mem_ctrls.bytesWrittenSys               150912                       # Total written bytes from the system interface side
system.mem_ctrls.servicedByWrQ                      0                       # Number of DRAM read bursts serviced by the write queue
system.mem_ctrls.mergedWrBursts                     0                       # Number of DRAM write bursts merged with an existing one
system.mem_ctrls.neitherReadNorWriteReqs            0                       # Number of requests that are neither read nor write
system.mem_ctrls.perBankRdBursts::0               319                       # Per bank write bursts
system.mem_ctrls.perBankRdBursts::1               290                       # Per bank write bursts
system.mem_ctrls.perBankRdBursts::2               344                       # Per bank write bursts
system.mem_ctrls.perBankRdBursts::3               377                       # Per bank write bursts
system.mem_ctrls.perBankRdBursts::4               372                       # Per bank write bursts
system.mem_ctrls.perBankRdBursts::5               328                       # Per bank write bursts
system.mem_ctrls.perBankRdBursts::6               248                       # Per bank write bursts
system.mem_ctrls.perBankRdBursts::7               248                       # Per bank write bursts
system.mem_ctrls.perBankRdBursts::8               310                       # Per bank write bursts
system.mem_ctrls.perBankRdBursts::9               373                       # Per bank write bursts
system.mem_ctrls.perBankRdBursts::10              310                       # Per bank write bursts
system.mem_ctrls.perBankRdBursts::11              361                       # Per bank write bursts
system.mem_ctrls.perBankRdBursts::12              394                       # Per bank write bursts
system.mem_ctrls.perBankRdBursts::13              495                       # Per bank write bursts
system.mem_ctrls.perBankRdBursts::14              290                       # Per bank write bursts
system.mem_ctrls.perBankRdBursts::15              267                       # Per bank write bursts
system.mem_ctrls.perBankWrBursts::0               126                       # Per bank write bursts
system.mem_ctrls.perBankWrBursts::1               129                       # Per bank write bursts
system.mem_ctrls.perBankWrBursts::2               143                       # Per bank write bursts
system.mem_ctrls.perBankWrBursts::3               147                       # Per bank write bursts
system.mem_ctrls.perBankWrBursts::4               145                       # Per bank write bursts
system.mem_ctrls.perBankWrBursts::5               121                       # Per bank write bursts
system.mem_ctrls.perBankWrBursts::6               115                       # Per bank write bursts
system.mem_ctrls.perBankWrBursts::7               120                       # Per bank write bursts
system.mem_ctrls.perBankWrBursts::8               146                       # Per bank write bursts
system.mem_ctrls.perBankWrBursts::9               185                       # Per bank write bursts
system.mem_ctrls.perBankWrBursts::10              154                       # Per bank write bursts
system.mem_ctrls.perBankWrBursts::11              131                       # Per bank write bursts
system.mem_ctrls.perBankWrBursts::12              199                       # Per bank write bursts
system.mem_ctrls.perBankWrBursts::13              236                       # Per bank write bursts
system.mem_ctrls.perBankWrBursts::14              152                       # Per bank write bursts
system.mem_ctrls.perBankWrBursts::15              117                       # Per bank write bursts
system.mem_ctrls.numRdRetry                         0                       # Number of times read queue was full causing retry
system.mem_ctrls.numWrRetry                         0                       # Number of times write queue was full causing retry
system.mem_ctrls.totGap                   15268355500                       # Total gap between requests
system.mem_ctrls.readPktSize::0                     0                       # Read request sizes (log2)
system.mem_ctrls.readPktSize::1                     0                       # Read request sizes (log2)
system.mem_ctrls.readPktSize::2                     0                       # Read request sizes (log2)
system.mem_ctrls.readPktSize::3                     0                       # Read request sizes (log2)
system.mem_ctrls.readPktSize::4                     0                       # Read request sizes (log2)
system.mem_ctrls.readPktSize::5                     0                       # Read request sizes (log2)
system.mem_ctrls.readPktSize::6                  5326                       # Read request sizes (log2)
system.mem_ctrls.writePktSize::0                    0                       # Write request sizes (log2)
system.mem_ctrls.writePktSize::1                    0                       # Write request sizes (log2)
system.mem_ctrls.writePktSize::2                    0                       # Write request sizes (log2)
system.mem_ctrls.writePktSize::3                    0                       # Write request sizes (log2)
system.mem_ctrls.writePktSize::4                    0                       # Write request sizes (log2)
system.mem_ctrls.writePktSize::5                    0                       # Write request sizes (log2)
system.mem_ctrls.writePktSize::6                 2358                       # Write request sizes (log2)
system.mem_ctrls.rdQLenPdf::0                    4923                       # What read queue length does an incoming req see
system.mem_ctrls.rdQLenPdf::1                     367                       # What read queue length does an incoming req see
system.mem_ctrls.rdQLenPdf::2                      35                       # What read queue length does an incoming req see
system.mem_ctrls.rdQLenPdf::3                       1                       # What read queue length does an incoming req see
system.mem_ctrls.rdQLenPdf::4                       0                       # What read queue length does an incoming req see
system.mem_ctrls.rdQLenPdf::5                       0                       # What read queue length does an incoming req see
system.mem_ctrls.rdQLenPdf::6                       0                       # What read queue length does an incoming req see
system.mem_ctrls.rdQLenPdf::7                       0                       # What read queue length does an incoming req see
system.mem_ctrls.rdQLenPdf::8                       0                       # What read queue length does an incoming req see
system.mem_ctrls.rdQLenPdf::9                       0                       # What read queue length does an incoming req see
system.mem_ctrls.rdQLenPdf::10                      0                       # What read queue length does an incoming req see
system.mem_ctrls.rdQLenPdf::11                      0                       # What read queue length does an incoming req see
system.mem_ctrls.rdQLenPdf::12                      0                       # What read queue length does an incoming req see
system.mem_ctrls.rdQLenPdf::13                      0                       # What read queue length does an incoming req see
system.mem_ctrls.rdQLenPdf::14                      0                       # What read queue length does an incoming req see
system.mem_ctrls.rdQLenPdf::15                      0                       # What read queue length does an incoming req see
system.mem_ctrls.rdQLenPdf::16                      0                       # What read queue length does an incoming req see
system.mem_ctrls.rdQLenPdf::17                      0                       # What read queue length does an incoming req see
system.mem_ctrls.rdQLenPdf::18                      0                       # What read queue length does an incoming req see
system.mem_ctrls.rdQLenPdf::19                      0                       # What read queue length does an incoming req see
system.mem_ctrls.rdQLenPdf::20                      0                       # What read queue length does an incoming req see
system.mem_ctrls.rdQLenPdf::21                      0                       # What read queue length does an incoming req see
system.mem_ctrls.rdQLenPdf::22                      0                       # What read queue length does an incoming req see
system.mem_ctrls.rdQLenPdf::23                      0                       # What read queue length does an incoming req see
system.mem_ctrls.rdQLenPdf::24                      0                       # What read queue length does an incoming req see
system.mem_ctrls.rdQLenPdf::25                      0                       # What read queue length does an incoming req see
system.mem_ctrls.rdQLenPdf::26                      0                       # What read queue length does an incoming req see
system.mem_ctrls.rdQLenPdf::27                      0                       # What read queue length does an incoming req see
system.mem_ctrls.rdQLenPdf::28                      0                       # What read queue length does an incoming req see
system.mem_ctrls.rdQLenPdf::29                      0                       # What read queue length does an incoming req see
system.mem_ctrls.rdQLenPdf::30                      0                       # What read queue length does an incoming req see
system.mem_ctrls.rdQLenPdf::31                      0                       # What read queue length does an incoming req see
system.mem_ctrls.wrQLenPdf::0                       0                       # What write queue length does an incoming req see
system.mem_ctrls.wrQLenPdf::1                       0                       # What write queue length does an incoming req see
system.mem_ctrls.wrQLenPdf::2                       0                       # What write queue length does an incoming req see
system.mem_ctrls.wrQLenPdf::3                       0                       # What write queue length does an incoming req see
system.mem_ctrls.wrQLenPdf::4                       0                       # What write queue length does an incoming req see
system.mem_ctrls.wrQLenPdf::5                       0                       # What write queue length does an incoming req see
system.mem_ctrls.wrQLenPdf::6                       0                       # What write queue length does an incoming req see
system.mem_ctrls.wrQLenPdf::7                       0                       # What write queue length does an incoming req see
system.mem_ctrls.wrQLenPdf::8                       0                       # What write queue length does an incoming req see
system.mem_ctrls.wrQLenPdf::9                       0                       # What write queue length does an incoming req see
system.mem_ctrls.wrQLenPdf::10                      0                       # What write queue length does an incoming req see
system.mem_ctrls.wrQLenPdf::11                      0                       # What write queue length does an incoming req see
system.mem_ctrls.wrQLenPdf::12                      0                       # What write queue length does an incoming req see
system.mem_ctrls.wrQLenPdf::13                      0                       # What write queue length does an incoming req see
system.mem_ctrls.wrQLenPdf::14                      0                       # What write queue length does an incoming req see
system.mem_ctrls.wrQLenPdf::15                     86                       # What write queue length does an incoming req see
system.mem_ctrls.wrQLenPdf::16                     93                       # What write queue length does an incoming req see
system.mem_ctrls.wrQLenPdf::17                    136                       # What write queue length does an incoming req see
system.mem_ctrls.wrQLenPdf::18                    137                       # What write queue length does an incoming req see
system.mem_ctrls.wrQLenPdf::19                    136                       # What write queue length does an incoming req see
system.mem_ctrls.wrQLenPdf::20                    135                       # What write queue length does an incoming req see
system.mem_ctrls.wrQLenPdf::21                    135                       # What write queue length does an incoming req see
system.mem_ctrls.wrQLenPdf::22                    135                       # What write queue length does an incoming req see
system.mem_ctrls.wrQLenPdf::23                    135                       # What write queue length does an incoming req see
system.mem_ctrls.wrQLenPdf::24                    135                       # What write queue length does an incoming req see
system.mem_ctrls.wrQLenPdf::25                    136                       # What write queue length does an incoming req see
system.mem_ctrls.wrQLenPdf::26                    136                       # What write queue length does an incoming req see
system.mem_ctrls.wrQLenPdf::27                    135                       # What write queue length does an incoming req see
system.mem_ctrls.wrQLenPdf::28                    137                       # What write queue length does an incoming req see
system.mem_ctrls.wrQLenPdf::29                    136                       # What write queue length does an incoming req see
system.mem_ctrls.wrQLenPdf::30                    139                       # What write queue length does an incoming req see
system.mem_ctrls.wrQLenPdf::31                    138                       # What write queue length does an incoming req see
system.mem_ctrls.wrQLenPdf::32                    138                       # What write queue length does an incoming req see
system.mem_ctrls.wrQLenPdf::33                      0                       # What write queue length does an incoming req see
system.mem_ctrls.wrQLenPdf::34                      0                       # What write queue length does an incoming req see
system.mem_ctrls.wrQLenPdf::35                      0                       # What write queue length does an incoming req see
system.mem_ctrls.wrQLenPdf::36                      0                       # What write queue length does an incoming req see
system.mem_ctrls.wrQLenPdf::37                      0                       # What write queue length does an incoming req see
system.mem_ctrls.wrQLenPdf::38                      0                       # What write queue length does an incoming req see
system.mem_ctrls.wrQLenPdf::39                      0                       # What write queue length does an incoming req see
system.mem_ctrls.wrQLenPdf::40                      0                       # What write queue length does an incoming req see
system.mem_ctrls.wrQLenPdf::41                      0                       # What write queue length does an incoming req see
system.mem_ctrls.wrQLenPdf::42                      0                       # What write queue length does an incoming req see
system.mem_ctrls.wrQLenPdf::43                      0                       # What write queue length does an incoming req see
system.mem_ctrls.wrQLenPdf::44                      0                       # What write queue length does an incoming req see
system.mem_ctrls.wrQLenPdf::45                      0                       # What write queue length does an incoming req see
system.mem_ctrls.wrQLenPdf::46                      0                       # What write queue length does an incoming req see
system.mem_ctrls.wrQLenPdf::47                      0                       # What write queue length does an incoming req see
system.mem_ctrls.wrQLenPdf::48                      0                       # What write queue length does an incoming req see
system.mem_ctrls.wrQLenPdf::49                      0                       # What write queue length does an incoming req see
system.mem_ctrls.wrQLenPdf::50                      0                       # What write queue length does an incoming req see
system.mem_ctrls.wrQLenPdf::51                      0                       # What write queue length does an incoming req see
system.mem_ctrls.wrQLenPdf::52                      0                       # What write queue length does an incoming req see
system.mem_ctrls.wrQLenPdf::53                      0                       # What write queue length does an incoming req see
system.mem_ctrls.wrQLenPdf::54                      0                       # What write queue length does an incoming req see
system.mem_ctrls.wrQLenPdf::55                      0                       # What write queue length does an incoming req see
system.mem_ctrls.wrQLenPdf::56                      0                       # What write queue length does an incoming req see
system.mem_ctrls.wrQLenPdf::57                      0                       # What write queue length does an incoming req see
system.mem_ctrls.wrQLenPdf::58                      0                       # What write queue length does an incoming req see
system.mem_ctrls.wrQLenPdf::59                      0                       # What write queue length does an incoming req see
system.mem_ctrls.wrQLenPdf::60                      0                       # What write queue length does an incoming req see
system.mem_ctrls.wrQLenPdf::61                      0                       # What write queue length does an incoming req see
system.mem_ctrls.wrQLenPdf::62                      0                       # What write queue length does an incoming req see
system.mem_ctrls.wrQLenPdf::63                      0                       # What write queue length does an incoming req see
system.mem_ctrls.bytesPerActivate::samples         4668                       # Bytes accessed per row activation
system.mem_ctrls.bytesPerActivate::mean    105.446444                       # Bytes accessed per row activation
system.mem_ctrls.bytesPerActivate::gmean    82.913108                       # Bytes accessed per row activation
system.mem_ctrls.bytesPerActivate::stdev   136.273608                       # Bytes accessed per row activation
system.mem_ctrls.bytesPerActivate::0-127         3421     73.29%     73.29% # Bytes accessed per row activation
system.mem_ctrls.bytesPerActivate::128-255         1056     22.62%     95.91% # Bytes accessed per row activation
system.mem_ctrls.bytesPerActivate::256-383           40      0.86%     96.77% # Bytes accessed per row activation
system.mem_ctrls.bytesPerActivate::384-511           17      0.36%     97.13% # Bytes accessed per row activation
system.mem_ctrls.bytesPerActivate::512-639           18      0.39%     97.51% # Bytes accessed per row activation
system.mem_ctrls.bytesPerActivate::640-767           20      0.43%     97.94% # Bytes accessed per row activation
system.mem_ctrls.bytesPerActivate::768-895           27      0.58%     98.52% # Bytes accessed per row activation
system.mem_ctrls.bytesPerActivate::896-1023           27      0.58%     99.10% # Bytes accessed per row activation
system.mem_ctrls.bytesPerActivate::1024-1151           42      0.90%    100.00% # Bytes accessed per row activation
system.mem_ctrls.bytesPerActivate::total         4668                       # Bytes accessed per row activation
system.mem_ctrls.rdPerTurnAround::samples          136                       # Reads before turning the bus around for writes
system.mem_ctrls.rdPerTurnAround::mean      39.507353                       # Reads before turning the bus around for writes
system.mem_ctrls.rdPerTurnAround::gmean     38.808627                       # Reads before turning the bus around for writes
system.mem_ctrls.rdPerTurnAround::stdev      8.484405                       # Reads before turning the bus around for writes
system.mem_ctrls.rdPerTurnAround::24-27             1      0.74%      0.74% # Reads before turning the bus around for writes
system.mem_ctrls.rdPerTurnAround::28-31            12      8.82%      9.56% # Reads before turning the bus around for writes
system.mem_ctrls.rdPerTurnAround::32-35            29     21.32%     30.88% # Reads before turning the bus around for writes
system.mem_ctrls.rdPerTurnAround::36-39            39     28.68%     59.56% # Reads before turning the bus around for writes
system.mem_ctrls.rdPerTurnAround::40-43            29     21.32%     80.88% # Reads before turning the bus around for writes
system.mem_ctrls.rdPerTurnAround::44-47            16     11.76%     92.65% # Reads before turning the bus around for writes
system.mem_ctrls.rdPerTurnAround::48-51             3      2.21%     94.85% # Reads before turning the bus around for writes
system.mem_ctrls.rdPerTurnAround::52-55             3      2.21%     97.06% # Reads before turning the bus around for writes
system.mem_ctrls.rdPerTurnAround::56-59             1      0.74%     97.79% # Reads before turning the bus around for writes
system.mem_ctrls.rdPerTurnAround::72-75             1      0.74%     98.53% # Reads before turning the bus around for writes
system.mem_ctrls.rdPerTurnAround::80-83             1      0.74%     99.26% # Reads before turning the bus around for writes
system.mem_ctrls.rdPerTurnAround::92-95             1      0.74%    100.00% # Reads before turning the bus around for writes
system.mem_ctrls.rdPerTurnAround::total           136                       # Reads before turning the bus around for writes
system.mem_ctrls.wrPerTurnAround::samples          136                       # Writes before turning the bus around for reads
system.mem_ctrls.wrPerTurnAround::mean      17.397059                       # Writes before turning the bus around for reads
system.mem_ctrls.wrPerTurnAround::gmean     17.366840                       # Writes before turning the bus around for reads
system.mem_ctrls.wrPerTurnAround::stdev      1.020381                       # Writes before turning the bus around for reads
system.mem_ctrls.wrPerTurnAround::16               43     31.62%     31.62% # Writes before turning the bus around for reads
system.mem_ctrls.wrPerTurnAround::17                7      5.15%     36.76% # Writes before turning the bus around for reads
system.mem_ctrls.wrPerTurnAround::18               75     55.15%     91.91% # Writes before turning the bus around for reads
system.mem_ctrls.wrPerTurnAround::19               11      8.09%    100.00% # Writes before turning the bus around for reads
system.mem_ctrls.wrPerTurnAround::total           136                       # Writes before turning the bus around for reads
system.mem_ctrls.totQLat                    273347250                       # Total ticks spent queuing
system.mem_ctrls.totMemAccLat               373209750                       # Total ticks spent from burst creation until serviced by the DRAM
system.mem_ctrls.totBusLat                   26630000                       # Total ticks spent in databus transfers
system.mem_ctrls.avgQLat                     51323.18                       # Average queueing delay per DRAM burst
system.mem_ctrls.avgBusLat                    5000.00                       # Average bus latency per DRAM burst
system.mem_ctrls.avgMemAccLat                70073.18                       # Average memory access latency per DRAM burst
system.mem_ctrls.avgRdBW                        22.33                       # Average DRAM read bandwidth in MiByte/s
system.mem_ctrls.avgWrBW                         9.92                       # Average achieved write bandwidth in MiByte/s
system.mem_ctrls.avgRdBWSys                     22.33                       # Average system read bandwidth in MiByte/s
system.mem_ctrls.avgWrBWSys                      9.88                       # Average system write bandwidth in MiByte/s
system.mem_ctrls.peakBW                      12800.00                       # Theoretical peak bandwidth in MiByte/s
system.mem_ctrls.busUtil                         0.25                       # Data bus utilization in percentage
system.mem_ctrls.busUtilRead                     0.17                       # Data bus utilization in percentage for reads
system.mem_ctrls.busUtilWrite                    0.08                       # Data bus utilization in percentage for writes
system.mem_ctrls.avgRdQLen                       1.12                       # Average read queue length when enqueuing
system.mem_ctrls.avgWrQLen                      24.95                       # Average write queue length when enqueuing
system.mem_ctrls.readRowHits                     1054                       # Number of row buffer hits during reads
system.mem_ctrls.writeRowHits                    1969                       # Number of row buffer hits during writes
system.mem_ctrls.readRowHitRate                 19.79                       # Row buffer hit rate for reads
system.mem_ctrls.writeRowHitRate                83.50                       # Row buffer hit rate for writes
system.mem_ctrls.avgGap                    1987032.21                       # Average gap between requests
system.mem_ctrls.pageHitRate                    39.34                       # Row buffer hit rate, read and write combined
system.mem_ctrls_0.actEnergy                 14965440                       # Energy for activate commands per rank (pJ)
system.mem_ctrls_0.preEnergy                  7950525                       # Energy for precharge commands per rank (pJ)
system.mem_ctrls_0.readEnergy                18035640                       # Energy for read commands per rank (pJ)
system.mem_ctrls_0.writeEnergy                5460120                       # Energy for write commands per rank (pJ)
system.mem_ctrls_0.refreshEnergy         1173962400.000000                       # Energy for refresh commands per rank (pJ)
system.mem_ctrls_0.actBackEnergy            358764840                       # Energy for active background per rank (pJ)
system.mem_ctrls_0.preBackEnergy             35185440                       # Energy for precharge background per rank (pJ)
system.mem_ctrls_0.actPowerDownEnergy      2988521400                       # Energy for active power-down per rank (pJ)
system.mem_ctrls_0.prePowerDownEnergy      2508500160                       # Energy for precharge power-down per rank (pJ)
system.mem_ctrls_0.selfRefreshEnergy        381612600                       # Energy for self refresh per rank (pJ)
system.mem_ctrls_0.totalEnergy             7493912295                       # Total energy per rank (pJ)
system.mem_ctrls_0.averagePower            490.845836                       # Core power per rank (mW)
system.mem_ctrls_0.totalIdleTime          14385650250                       # Total Idle time Per DRAM Rank
system.mem_ctrls_0.memoryStateTime::IDLE     42864000                       # Time in different power states
system.mem_ctrls_0.memoryStateTime::REF     497709500                       # Time in different power states
system.mem_ctrls_0.memoryStateTime::SREF   1300298750                       # Time in different power states
system.mem_ctrls_0.memoryStateTime::PRE_PDN   6532348500                       # Time in different power states
system.mem_ctrls_0.memoryStateTime::ACT     340444000                       # Time in different power states
system.mem_ctrls_0.memoryStateTime::ACT_PDN   6553679375                       # Time in different power states
system.mem_ctrls_1.actEnergy                 18371220                       # Energy for activate commands per rank (pJ)
system.mem_ctrls_1.preEnergy                  9764535                       # Energy for precharge commands per rank (pJ)
system.mem_ctrls_1.readEnergy                19992000                       # Energy for read commands per rank (pJ)
system.mem_ctrls_1.writeEnergy                6890400                       # Energy for write commands per rank (pJ)
system.mem_ctrls_1.refreshEnergy         1183182000.000000                       # Energy for refresh commands per rank (pJ)
system.mem_ctrls_1.actBackEnergy            401565570                       # Energy for active background per rank (pJ)
system.mem_ctrls_1.preBackEnergy             38927040                       # Energy for precharge background per rank (pJ)
system.mem_ctrls_1.actPowerDownEnergy      3245328060                       # Energy for active power-down per rank (pJ)
system.mem_ctrls_1.prePowerDownEnergy      2263230720                       # Energy for precharge power-down per rank (pJ)
system.mem_ctrls_1.selfRefreshEnergy        381553080                       # Energy for self refresh per rank (pJ)
system.mem_ctrls_1.totalEnergy             7569811935                       # Total energy per rank (pJ)
system.mem_ctrls_1.averagePower            495.817208                       # Core power per rank (mW)
system.mem_ctrls_1.totalIdleTime          14282442750                       # Total Idle time Per DRAM Rank
system.mem_ctrls_1.memoryStateTime::IDLE     52396000                       # Time in different power states
system.mem_ctrls_1.memoryStateTime::REF     501508000                       # Time in different power states
system.mem_ctrls_1.memoryStateTime::SREF   1272326500                       # Time in different power states
system.mem_ctrls_1.memoryStateTime::PRE_PDN   5893842625                       # Time in different power states
system.mem_ctrls_1.memoryStateTime::ACT     430452250                       # Time in different power states
system.mem_ctrls_1.memoryStateTime::ACT_PDN   7116818750                       # Time in different power states
system.pwrStateResidencyTicks::UNDEFINED  15267344125                       # Cumulative time (in ticks) in various power states
system.cpu0.branchPred.lookups                7486607                       # Number of BP lookups
system.cpu0.branchPred.condPredicted          7486607                       # Number of conditional branches predicted
system.cpu0.branchPred.condIncorrect           375154                       # Number of conditional branches incorrect
system.cpu0.branchPred.BTBLookups             5832194                       # Number of BTB lookups
system.cpu0.branchPred.BTBHits                      0                       # Number of BTB hits
system.cpu0.branchPred.BTBCorrect                   0                       # Number of correct BTB predictions (this stat may not work properly.
system.cpu0.branchPred.BTBHitPct             0.000000                       # BTB Hit Percentage
system.cpu0.branchPred.usedRAS                 302833                       # Number of times the RAS was used to get a target.
system.cpu0.branchPred.RASInCorrect             41716                       # Number of incorrect RAS predictions.
system.cpu0.branchPred.indirectLookups        5832194                       # Number of indirect predictor lookups.
system.cpu0.branchPred.indirectHits           3051910                       # Number of indirect target hits.
system.cpu0.branchPred.indirectMisses         2780284                       # Number of indirect misses.
system.cpu0.branchPredindirectMispredicted       150461                       # Number of mispredicted indirect branches.
system.cpu_voltage_domain.voltage                   1                       # Voltage in Volts
system.cpu_clk_domain.clock                       500                       # Clock period in ticks
system.cpu0.dtb.walker.pwrStateResidencyTicks::UNDEFINED  15267344125                       # Cumulative time (in ticks) in various power states
system.cpu0.dtb.rdAccesses                    3785996                       # TLB accesses on read requests
system.cpu0.dtb.wrAccesses                     427642                       # TLB accesses on write requests
system.cpu0.dtb.rdMisses                       726311                       # TLB misses on read requests
system.cpu0.dtb.wrMisses                         7345                       # TLB misses on write requests
system.cpu0.apic_clk_domain.clock                8000                       # Clock period in ticks
system.cpu0.interrupts.pwrStateResidencyTicks::UNDEFINED  15267344125                       # Cumulative time (in ticks) in various power states
system.cpu0.itb.walker.pwrStateResidencyTicks::UNDEFINED  15267344125                       # Cumulative time (in ticks) in various power states
system.cpu0.itb.rdAccesses                          0                       # TLB accesses on read requests
system.cpu0.itb.wrAccesses                    6051763                       # TLB accesses on write requests
system.cpu0.itb.rdMisses                            0                       # TLB misses on read requests
system.cpu0.itb.wrMisses                        23689                       # TLB misses on write requests
system.cpu0.workload.numSyscalls                    1                       # Number of system calls
system.cpu0.pwrStateResidencyTicks::ON    15267344125                       # Cumulative time (in ticks) in various power states
system.cpu0.numCycles                        30534688                       # number of cpu cycles simulated
system.cpu0.numWorkItemsStarted                     0                       # number of work items this cpu started
system.cpu0.numWorkItemsCompleted                   0                       # number of work items this cpu completed
system.cpu0.fetch.icacheStallCycles           6225775                       # Number of cycles fetch is stalled on an Icache miss
system.cpu0.fetch.Insts                      22945597                       # Number of instructions fetch has processed
system.cpu0.fetch.Branches                    7486607                       # Number of branches that fetch encountered
system.cpu0.fetch.predictedBranches           3354743                       # Number of branches that fetch has predicted taken
system.cpu0.fetch.Cycles                     23744954                       # Number of cycles fetch has run and was not squashing or blocked
system.cpu0.fetch.SquashCycles                 765050                       # Number of cycles fetch has spent squashing
system.cpu0.fetch.TlbCycles                      1021                       # Number of cycles fetch has spent waiting for tlb
system.cpu0.fetch.MiscStallCycles                5257                       # Number of cycles fetch has spent waiting on interrupts, or bad addresses, or out of MSHRs
system.cpu0.fetch.PendingTrapStallCycles       173572                       # Number of stall cycles due to pending traps
system.cpu0.fetch.PendingQuiesceStallCycles            7                       # Number of stall cycles due to pending quiesce instructions
system.cpu0.fetch.CacheLines                  6028074                       # Number of cache lines fetched
system.cpu0.fetch.IcacheSquashes                70956                       # Number of outstanding Icache misses that were squashed
system.cpu0.fetch.ItlbSquashes                     17                       # Number of outstanding ITLB misses that were squashed
system.cpu0.fetch.rateDist::samples          30533111                       # Number of instructions fetched each cycle (Total)
system.cpu0.fetch.rateDist::mean             1.515813                       # Number of instructions fetched each cycle (Total)
system.cpu0.fetch.rateDist::stdev            2.819349                       # Number of instructions fetched each cycle (Total)
system.cpu0.fetch.rateDist::underflows              0      0.00%      0.00% # Number of instructions fetched each cycle (Total)
system.cpu0.fetch.rateDist::0                21903159     71.74%     71.74% # Number of instructions fetched each cycle (Total)
system.cpu0.fetch.rateDist::1                  127093      0.42%     72.15% # Number of instructions fetched each cycle (Total)
system.cpu0.fetch.rateDist::2                 2758498      9.03%     81.19% # Number of instructions fetched each cycle (Total)
system.cpu0.fetch.rateDist::3                  187690      0.61%     81.80% # Number of instructions fetched each cycle (Total)
system.cpu0.fetch.rateDist::4                  595313      1.95%     83.75% # Number of instructions fetched each cycle (Total)
system.cpu0.fetch.rateDist::5                  349505      1.14%     84.90% # Number of instructions fetched each cycle (Total)
system.cpu0.fetch.rateDist::6                  403826      1.32%     86.22% # Number of instructions fetched each cycle (Total)
system.cpu0.fetch.rateDist::7                  140631      0.46%     86.68% # Number of instructions fetched each cycle (Total)
system.cpu0.fetch.rateDist::8                 4067396     13.32%    100.00% # Number of instructions fetched each cycle (Total)
system.cpu0.fetch.rateDist::overflows               0      0.00%    100.00% # Number of instructions fetched each cycle (Total)
system.cpu0.fetch.rateDist::min_value               0                       # Number of instructions fetched each cycle (Total)
system.cpu0.fetch.rateDist::max_value               8                       # Number of instructions fetched each cycle (Total)
system.cpu0.fetch.rateDist::total            30533111                       # Number of instructions fetched each cycle (Total)
system.cpu0.fetch.branchRate                 0.245184                       # Number of branch fetches per cycle
system.cpu0.fetch.rate                       0.751460                       # Number of inst fetches per cycle
system.cpu0.decode.IdleCycles                 3479032                       # Number of cycles decode is idle
system.cpu0.decode.BlockedCycles             20544890                       # Number of cycles decode is blocked
system.cpu0.decode.RunCycles                  4829976                       # Number of cycles decode is running
system.cpu0.decode.UnblockCycles              1296688                       # Number of cycles decode is unblocking
system.cpu0.decode.SquashCycles                382525                       # Number of cycles decode is squashing
system.cpu0.decode.DecodedInsts              39878698                       # Number of instructions handled by decode
system.cpu0.rename.SquashCycles                382525                       # Number of cycles rename is squashing
system.cpu0.rename.IdleCycles                 4013329                       # Number of cycles rename is idle
system.cpu0.rename.BlockCycles               16626681                       # Number of cycles rename is blocking
system.cpu0.rename.serializeStallCycles         73555                       # count of cycles rename stalled for serializing inst
system.cpu0.rename.RunCycles                  5345071                       # Number of cycles rename is running
system.cpu0.rename.UnblockCycles              4091950                       # Number of cycles rename is unblocking
system.cpu0.rename.RenamedInsts              38143292                       # Number of instructions processed by rename
system.cpu0.rename.ROBFullEvents                86207                       # Number of times rename has blocked due to ROB full
system.cpu0.rename.IQFullEvents               3722303                       # Number of times rename has blocked due to IQ full
system.cpu0.rename.LQFullEvents                 80969                       # Number of times rename has blocked due to LQ full
system.cpu0.rename.SQFullEvents                 32390                       # Number of times rename has blocked due to SQ full
system.cpu0.rename.RenamedOperands           45348112                       # Number of destination operands rename has renamed
system.cpu0.rename.RenameLookups            104674651                       # Number of register rename lookups that rename has made
system.cpu0.rename.int_rename_lookups        51472795                       # Number of integer rename lookups
system.cpu0.rename.fp_rename_lookups           340794                       # Number of floating rename lookups
system.cpu0.rename.CommittedMaps             17077904                       # Number of HB maps that are committed
system.cpu0.rename.UndoneMaps                28270165                       # Number of HB maps that are undone due to squashing
system.cpu0.rename.serializingInsts              1558                       # count of serializing insts renamed
system.cpu0.rename.tempSerializingInsts          1963                       # count of temporary serializing insts renamed
system.cpu0.rename.skidInsts                  7669105                       # count of insts added to the skid buffer
system.cpu0.memDep0.insertedLoads             6391635                       # Number of loads inserted to the mem dependence unit.
system.cpu0.memDep0.insertedStores             617143                       # Number of stores inserted to the mem dependence unit.
system.cpu0.memDep0.conflictingLoads            38454                       # Number of conflicting loads.
system.cpu0.memDep0.conflictingStores           41401                       # Number of conflicting stores.
system.cpu0.iq.iqInstsAdded                  35607862                       # Number of instructions added to the IQ (excludes non-spec)
system.cpu0.iq.iqNonSpecInstsAdded              33161                       # Number of non-speculative instructions added to the IQ
system.cpu0.iq.iqInstsIssued                 26215852                       # Number of instructions issued
system.cpu0.iq.iqSquashedInstsIssued            55199                       # Number of squashed instructions issued
system.cpu0.iq.iqSquashedInstsExamined       21441553                       # Number of squashed instructions iterated over during squash; mainly for profiling
system.cpu0.iq.iqSquashedOperandsExamined     43116298                       # Number of squashed operands that are examined and possibly removed from graph
system.cpu0.iq.iqSquashedNonSpecRemoved         33160                       # Number of squashed non-spec instructions that were removed
system.cpu0.iq.issued_per_cycle::samples     30533111                       # Number of insts issued each cycle
system.cpu0.iq.issued_per_cycle::mean        0.858604                       # Number of insts issued each cycle
system.cpu0.iq.issued_per_cycle::stdev       1.611104                       # Number of insts issued each cycle
system.cpu0.iq.issued_per_cycle::underflows            0      0.00%      0.00% # Number of insts issued each cycle
system.cpu0.iq.issued_per_cycle::0           20992291     68.75%     68.75% # Number of insts issued each cycle
system.cpu0.iq.issued_per_cycle::1            3152695     10.33%     79.08% # Number of insts issued each cycle
system.cpu0.iq.issued_per_cycle::2            1964321      6.43%     85.51% # Number of insts issued each cycle
system.cpu0.iq.issued_per_cycle::3            1448179      4.74%     90.25% # Number of insts issued each cycle
system.cpu0.iq.issued_per_cycle::4            1476637      4.84%     95.09% # Number of insts issued each cycle
system.cpu0.iq.issued_per_cycle::5             633709      2.08%     97.17% # Number of insts issued each cycle
system.cpu0.iq.issued_per_cycle::6             491174      1.61%     98.77% # Number of insts issued each cycle
system.cpu0.iq.issued_per_cycle::7             224999      0.74%     99.51% # Number of insts issued each cycle
system.cpu0.iq.issued_per_cycle::8             149106      0.49%    100.00% # Number of insts issued each cycle
system.cpu0.iq.issued_per_cycle::overflows            0      0.00%    100.00% # Number of insts issued each cycle
system.cpu0.iq.issued_per_cycle::min_value            0                       # Number of insts issued each cycle
system.cpu0.iq.issued_per_cycle::max_value            8                       # Number of insts issued each cycle
system.cpu0.iq.issued_per_cycle::total       30533111                       # Number of insts issued each cycle
system.cpu0.iq.fu_full::No_OpClass                  0      0.00%      0.00% # attempts to use FU when none available
system.cpu0.iq.fu_full::IntAlu                 104591     76.44%     76.44% # attempts to use FU when none available
system.cpu0.iq.fu_full::IntMult                     0      0.00%     76.44% # attempts to use FU when none available
system.cpu0.iq.fu_full::IntDiv                      0      0.00%     76.44% # attempts to use FU when none available
system.cpu0.iq.fu_full::FloatAdd                10169      7.43%     83.87% # attempts to use FU when none available
system.cpu0.iq.fu_full::FloatCmp                    0      0.00%     83.87% # attempts to use FU when none available
system.cpu0.iq.fu_full::FloatCvt                    0      0.00%     83.87% # attempts to use FU when none available
system.cpu0.iq.fu_full::FloatMult                   0      0.00%     83.87% # attempts to use FU when none available
system.cpu0.iq.fu_full::FloatMultAcc                0      0.00%     83.87% # attempts to use FU when none available
system.cpu0.iq.fu_full::FloatDiv                    0      0.00%     83.87% # attempts to use FU when none available
system.cpu0.iq.fu_full::FloatMisc                   0      0.00%     83.87% # attempts to use FU when none available
system.cpu0.iq.fu_full::FloatSqrt                   0      0.00%     83.87% # attempts to use FU when none available
system.cpu0.iq.fu_full::SimdAdd                     0      0.00%     83.87% # attempts to use FU when none available
system.cpu0.iq.fu_full::SimdAddAcc                  0      0.00%     83.87% # attempts to use FU when none available
system.cpu0.iq.fu_full::SimdAlu                     0      0.00%     83.87% # attempts to use FU when none available
system.cpu0.iq.fu_full::SimdCmp                     0      0.00%     83.87% # attempts to use FU when none available
system.cpu0.iq.fu_full::SimdCvt                     0      0.00%     83.87% # attempts to use FU when none available
system.cpu0.iq.fu_full::SimdMisc                    0      0.00%     83.87% # attempts to use FU when none available
system.cpu0.iq.fu_full::SimdMult                    0      0.00%     83.87% # attempts to use FU when none available
system.cpu0.iq.fu_full::SimdMultAcc                 0      0.00%     83.87% # attempts to use FU when none available
system.cpu0.iq.fu_full::SimdShift                   0      0.00%     83.87% # attempts to use FU when none available
system.cpu0.iq.fu_full::SimdShiftAcc                0      0.00%     83.87% # attempts to use FU when none available
system.cpu0.iq.fu_full::SimdSqrt                    0      0.00%     83.87% # attempts to use FU when none available
system.cpu0.iq.fu_full::SimdFloatAdd                0      0.00%     83.87% # attempts to use FU when none available
system.cpu0.iq.fu_full::SimdFloatAlu                0      0.00%     83.87% # attempts to use FU when none available
system.cpu0.iq.fu_full::SimdFloatCmp                0      0.00%     83.87% # attempts to use FU when none available
system.cpu0.iq.fu_full::SimdFloatCvt                0      0.00%     83.87% # attempts to use FU when none available
system.cpu0.iq.fu_full::SimdFloatDiv                0      0.00%     83.87% # attempts to use FU when none available
system.cpu0.iq.fu_full::SimdFloatMisc               0      0.00%     83.87% # attempts to use FU when none available
system.cpu0.iq.fu_full::SimdFloatMult               0      0.00%     83.87% # attempts to use FU when none available
system.cpu0.iq.fu_full::SimdFloatMultAcc            0      0.00%     83.87% # attempts to use FU when none available
system.cpu0.iq.fu_full::SimdFloatSqrt               0      0.00%     83.87% # attempts to use FU when none available
system.cpu0.iq.fu_full::MemRead                 18259     13.34%     97.21% # attempts to use FU when none available
system.cpu0.iq.fu_full::MemWrite                 2455      1.79%     99.01% # attempts to use FU when none available
system.cpu0.iq.fu_full::FloatMemRead             1080      0.79%     99.80% # attempts to use FU when none available
system.cpu0.iq.fu_full::FloatMemWrite             277      0.20%    100.00% # attempts to use FU when none available
system.cpu0.iq.fu_full::IprAccess                   0      0.00%    100.00% # attempts to use FU when none available
system.cpu0.iq.fu_full::InstPrefetch                0      0.00%    100.00% # attempts to use FU when none available
system.cpu0.iq.FU_type_0::No_OpClass           120190      0.46%      0.46% # Type of FU issued
system.cpu0.iq.FU_type_0::IntAlu             21365392     81.50%     81.96% # Type of FU issued
system.cpu0.iq.FU_type_0::IntMult                7777      0.03%     81.99% # Type of FU issued
system.cpu0.iq.FU_type_0::IntDiv                93904      0.36%     82.34% # Type of FU issued
system.cpu0.iq.FU_type_0::FloatAdd             130795      0.50%     82.84% # Type of FU issued
system.cpu0.iq.FU_type_0::FloatCmp                  0      0.00%     82.84% # Type of FU issued
system.cpu0.iq.FU_type_0::FloatCvt                  0      0.00%     82.84% # Type of FU issued
system.cpu0.iq.FU_type_0::FloatMult                 0      0.00%     82.84% # Type of FU issued
system.cpu0.iq.FU_type_0::FloatMultAcc              0      0.00%     82.84% # Type of FU issued
system.cpu0.iq.FU_type_0::FloatDiv                  0      0.00%     82.84% # Type of FU issued
system.cpu0.iq.FU_type_0::FloatMisc                 0      0.00%     82.84% # Type of FU issued
system.cpu0.iq.FU_type_0::FloatSqrt                 0      0.00%     82.84% # Type of FU issued
system.cpu0.iq.FU_type_0::SimdAdd                   0      0.00%     82.84% # Type of FU issued
system.cpu0.iq.FU_type_0::SimdAddAcc                0      0.00%     82.84% # Type of FU issued
system.cpu0.iq.FU_type_0::SimdAlu                   0      0.00%     82.84% # Type of FU issued
system.cpu0.iq.FU_type_0::SimdCmp                   0      0.00%     82.84% # Type of FU issued
system.cpu0.iq.FU_type_0::SimdCvt                   0      0.00%     82.84% # Type of FU issued
system.cpu0.iq.FU_type_0::SimdMisc                  0      0.00%     82.84% # Type of FU issued
system.cpu0.iq.FU_type_0::SimdMult                  0      0.00%     82.84% # Type of FU issued
system.cpu0.iq.FU_type_0::SimdMultAcc               0      0.00%     82.84% # Type of FU issued
system.cpu0.iq.FU_type_0::SimdShift                 0      0.00%     82.84% # Type of FU issued
system.cpu0.iq.FU_type_0::SimdShiftAcc              0      0.00%     82.84% # Type of FU issued
system.cpu0.iq.FU_type_0::SimdSqrt                  0      0.00%     82.84% # Type of FU issued
system.cpu0.iq.FU_type_0::SimdFloatAdd              0      0.00%     82.84% # Type of FU issued
system.cpu0.iq.FU_type_0::SimdFloatAlu              0      0.00%     82.84% # Type of FU issued
system.cpu0.iq.FU_type_0::SimdFloatCmp              0      0.00%     82.84% # Type of FU issued
system.cpu0.iq.FU_type_0::SimdFloatCvt              0      0.00%     82.84% # Type of FU issued
system.cpu0.iq.FU_type_0::SimdFloatDiv              0      0.00%     82.84% # Type of FU issued
system.cpu0.iq.FU_type_0::SimdFloatMisc             0      0.00%     82.84% # Type of FU issued
system.cpu0.iq.FU_type_0::SimdFloatMult             0      0.00%     82.84% # Type of FU issued
system.cpu0.iq.FU_type_0::SimdFloatMultAcc            0      0.00%     82.84% # Type of FU issued
system.cpu0.iq.FU_type_0::SimdFloatSqrt             0      0.00%     82.84% # Type of FU issued
system.cpu0.iq.FU_type_0::MemRead             4013874     15.31%     98.15% # Type of FU issued
system.cpu0.iq.FU_type_0::MemWrite             457975      1.75%     99.90% # Type of FU issued
system.cpu0.iq.FU_type_0::FloatMemRead          24933      0.10%    100.00% # Type of FU issued
system.cpu0.iq.FU_type_0::FloatMemWrite          1012      0.00%    100.00% # Type of FU issued
system.cpu0.iq.FU_type_0::IprAccess                 0      0.00%    100.00% # Type of FU issued
system.cpu0.iq.FU_type_0::InstPrefetch              0      0.00%    100.00% # Type of FU issued
system.cpu0.iq.FU_type_0::total              26215852                       # Type of FU issued
system.cpu0.iq.rate                          0.858560                       # Inst issue rate
system.cpu0.iq.fu_busy_cnt                     136831                       # FU busy when requested
system.cpu0.iq.fu_busy_rate                  0.005219                       # FU busy rate (busy events/executed inst)
system.cpu0.iq.int_inst_queue_reads          82829677                       # Number of integer instruction queue reads
system.cpu0.iq.int_inst_queue_writes         56800919                       # Number of integer instruction queue writes
system.cpu0.iq.int_inst_queue_wakeup_accesses     24851873                       # Number of integer instruction queue wakeup accesses
system.cpu0.iq.fp_inst_queue_reads             327165                       # Number of floating instruction queue reads
system.cpu0.iq.fp_inst_queue_writes            281694                       # Number of floating instruction queue writes
system.cpu0.iq.fp_inst_queue_wakeup_accesses       144302                       # Number of floating instruction queue wakeup accesses
system.cpu0.iq.vec_inst_queue_reads                 0                       # Number of vector instruction queue reads
system.cpu0.iq.vec_inst_queue_writes                0                       # Number of vector instruction queue writes
system.cpu0.iq.vec_inst_queue_wakeup_accesses            0                       # Number of vector instruction queue wakeup accesses
system.cpu0.iq.int_alu_accesses              26064155                       # Number of integer alu accesses
system.cpu0.iq.fp_alu_accesses                 168338                       # Number of floating point alu accesses
system.cpu0.iq.vec_alu_accesses                     0                       # Number of vector alu accesses
system.cpu0.iew.lsq.thread0.forwLoads           48467                       # Number of loads that had data forwarded from stores
system.cpu0.iew.lsq.thread0.invAddrLoads            0                       # Number of loads ignored due to an invalid address
system.cpu0.iew.lsq.thread0.squashedLoads      3941365                       # Number of loads squashed
system.cpu0.iew.lsq.thread0.ignoredResponses         1214                       # Number of memory responses ignored because the instruction is squashed
system.cpu0.iew.lsq.thread0.memOrderViolation           42                       # Number of memory ordering violations
system.cpu0.iew.lsq.thread0.squashedStores       335975                       # Number of stores squashed
system.cpu0.iew.lsq.thread0.invAddrSwpfs            0                       # Number of software prefetches ignored due to an invalid address
system.cpu0.iew.lsq.thread0.blockedLoads            0                       # Number of blocked loads due to partial load-store forwarding
system.cpu0.iew.lsq.thread0.rescheduledLoads          377                       # Number of loads that were rescheduled
system.cpu0.iew.lsq.thread0.cacheBlocked         8352                       # Number of times an access to memory failed due to the cache being blocked
system.cpu0.iew.iewIdleCycles                       0                       # Number of cycles IEW is idle
system.cpu0.iew.iewSquashCycles                382525                       # Number of cycles IEW is squashing
system.cpu0.iew.iewBlockCycles               13620255                       # Number of cycles IEW is blocking
system.cpu0.iew.iewUnblockCycles               639258                       # Number of cycles IEW is unblocking
system.cpu0.iew.iewDispatchedInsts           35641023                       # Number of instructions dispatched to IQ
system.cpu0.iew.iewDispSquashedInsts            22059                       # Number of squashed instructions skipped by dispatch
system.cpu0.iew.iewDispLoadInsts              6391635                       # Number of dispatched load instructions
system.cpu0.iew.iewDispStoreInsts              617143                       # Number of dispatched store instructions
system.cpu0.iew.iewDispNonSpecInsts             12038                       # Number of dispatched non-speculative instructions
system.cpu0.iew.iewIQFullEvents                 36890                       # Number of times the IQ has become full, causing a stall
system.cpu0.iew.iewLSQFullEvents                16279                       # Number of times the LSQ has become full, causing a stall
system.cpu0.iew.memOrderViolationEvents            42                       # Number of memory order violations
system.cpu0.iew.predictedTakenIncorrect        187823                       # Number of branches that were predicted taken incorrectly
system.cpu0.iew.predictedNotTakenIncorrect       250624                       # Number of branches that were predicted not taken incorrectly
system.cpu0.iew.branchMispredicts              438447                       # Number of branch mispredicts detected at execute
system.cpu0.iew.iewExecutedInsts             25543303                       # Number of executed instructions
system.cpu0.iew.iewExecLoadInsts              3783636                       # Number of load instructions executed
system.cpu0.iew.iewExecSquashedInsts           672546                       # Number of squashed instructions skipped in execute
system.cpu0.iew.exec_swp                            0                       # number of swp insts executed
system.cpu0.iew.exec_nop                            0                       # number of nop insts executed
system.cpu0.iew.exec_refs                     4211169                       # number of memory reference insts executed
system.cpu0.iew.exec_branches                 3005436                       # Number of branches executed
system.cpu0.iew.exec_stores                    427533                       # Number of stores executed
system.cpu0.iew.exec_rate                    0.836534                       # Inst execution rate
system.cpu0.iew.wb_sent                      25121150                       # cumulative count of insts sent to commit
system.cpu0.iew.wb_count                     24996175                       # cumulative count of insts written-back
system.cpu0.iew.wb_producers                 18630050                       # num instructions producing a value
system.cpu0.iew.wb_consumers                 30268892                       # num instructions consuming a value
system.cpu0.iew.wb_rate                      0.818616                       # insts written-back per cycle
system.cpu0.iew.wb_fanout                    0.615485                       # average fanout of values written-back
system.cpu0.commit.commitSquashedInsts       21442955                       # The number of squashed insts skipped by commit
system.cpu0.commit.commitNonSpecStalls              1                       # The number of times commit has been forced to stall to communicate backwards
system.cpu0.commit.branchMispredicts           382503                       # The number of times a branch was mispredicted
system.cpu0.commit.committed_per_cycle::samples     27456595                       # Number of insts commited each cycle
system.cpu0.commit.committed_per_cycle::mean     0.517160                       # Number of insts commited each cycle
system.cpu0.commit.committed_per_cycle::stdev     1.313969                       # Number of insts commited each cycle
system.cpu0.commit.committed_per_cycle::underflows            0      0.00%      0.00% # Number of insts commited each cycle
system.cpu0.commit.committed_per_cycle::0     21716820     79.10%     79.10% # Number of insts commited each cycle
system.cpu0.commit.committed_per_cycle::1      2504001      9.12%     88.21% # Number of insts commited each cycle
system.cpu0.commit.committed_per_cycle::2       670704      2.44%     90.66% # Number of insts commited each cycle
system.cpu0.commit.committed_per_cycle::3      1644995      5.99%     96.65% # Number of insts commited each cycle
system.cpu0.commit.committed_per_cycle::4       317561      1.16%     97.81% # Number of insts commited each cycle
system.cpu0.commit.committed_per_cycle::5       181210      0.66%     98.47% # Number of insts commited each cycle
system.cpu0.commit.committed_per_cycle::6        48142      0.18%     98.64% # Number of insts commited each cycle
system.cpu0.commit.committed_per_cycle::7        31395      0.11%     98.76% # Number of insts commited each cycle
system.cpu0.commit.committed_per_cycle::8       341767      1.24%    100.00% # Number of insts commited each cycle
system.cpu0.commit.committed_per_cycle::overflows            0      0.00%    100.00% # Number of insts commited each cycle
system.cpu0.commit.committed_per_cycle::min_value            0                       # Number of insts commited each cycle
system.cpu0.commit.committed_per_cycle::max_value            8                       # Number of insts commited each cycle
system.cpu0.commit.committed_per_cycle::total     27456595                       # Number of insts commited each cycle
system.cpu0.commit.committedInsts             7116346                       # Number of instructions committed
system.cpu0.commit.committedOps              14199441                       # Number of ops (including micro ops) committed
system.cpu0.commit.swp_count                        0                       # Number of s/w prefetches committed
system.cpu0.commit.refs                       2731438                       # Number of memory references committed
system.cpu0.commit.loads                      2450270                       # Number of loads committed
system.cpu0.commit.membars                          0                       # Number of memory barriers committed
system.cpu0.commit.branches                   2351714                       # Number of branches committed
system.cpu0.commit.vec_insts                        0                       # Number of committed Vector instructions.
system.cpu0.commit.fp_insts                    112672                       # Number of committed floating point instructions.
system.cpu0.commit.int_insts                 14085642                       # Number of committed integer instructions.
system.cpu0.commit.function_calls               49629                       # Number of function calls committed.
system.cpu0.commit.op_class_0::No_OpClass        33894      0.24%      0.24% # Class of committed instruction
system.cpu0.commit.op_class_0::IntAlu        11253855     79.26%     79.49% # Class of committed instruction
system.cpu0.commit.op_class_0::IntMult           1985      0.01%     79.51% # Class of committed instruction
system.cpu0.commit.op_class_0::IntDiv           81981      0.58%     80.09% # Class of committed instruction
system.cpu0.commit.op_class_0::FloatAdd         96288      0.68%     80.76% # Class of committed instruction
system.cpu0.commit.op_class_0::FloatCmp             0      0.00%     80.76% # Class of committed instruction
system.cpu0.commit.op_class_0::FloatCvt             0      0.00%     80.76% # Class of committed instruction
system.cpu0.commit.op_class_0::FloatMult            0      0.00%     80.76% # Class of committed instruction
system.cpu0.commit.op_class_0::FloatMultAcc            0      0.00%     80.76% # Class of committed instruction
system.cpu0.commit.op_class_0::FloatDiv             0      0.00%     80.76% # Class of committed instruction
system.cpu0.commit.op_class_0::FloatMisc            0      0.00%     80.76% # Class of committed instruction
system.cpu0.commit.op_class_0::FloatSqrt            0      0.00%     80.76% # Class of committed instruction
system.cpu0.commit.op_class_0::SimdAdd              0      0.00%     80.76% # Class of committed instruction
system.cpu0.commit.op_class_0::SimdAddAcc            0      0.00%     80.76% # Class of committed instruction
system.cpu0.commit.op_class_0::SimdAlu              0      0.00%     80.76% # Class of committed instruction
system.cpu0.commit.op_class_0::SimdCmp              0      0.00%     80.76% # Class of committed instruction
system.cpu0.commit.op_class_0::SimdCvt              0      0.00%     80.76% # Class of committed instruction
system.cpu0.commit.op_class_0::SimdMisc             0      0.00%     80.76% # Class of committed instruction
system.cpu0.commit.op_class_0::SimdMult             0      0.00%     80.76% # Class of committed instruction
system.cpu0.commit.op_class_0::SimdMultAcc            0      0.00%     80.76% # Class of committed instruction
system.cpu0.commit.op_class_0::SimdShift            0      0.00%     80.76% # Class of committed instruction
system.cpu0.commit.op_class_0::SimdShiftAcc            0      0.00%     80.76% # Class of committed instruction
system.cpu0.commit.op_class_0::SimdSqrt             0      0.00%     80.76% # Class of committed instruction
system.cpu0.commit.op_class_0::SimdFloatAdd            0      0.00%     80.76% # Class of committed instruction
system.cpu0.commit.op_class_0::SimdFloatAlu            0      0.00%     80.76% # Class of committed instruction
system.cpu0.commit.op_class_0::SimdFloatCmp            0      0.00%     80.76% # Class of committed instruction
system.cpu0.commit.op_class_0::SimdFloatCvt            0      0.00%     80.76% # Class of committed instruction
system.cpu0.commit.op_class_0::SimdFloatDiv            0      0.00%     80.76% # Class of committed instruction
system.cpu0.commit.op_class_0::SimdFloatMisc            0      0.00%     80.76% # Class of committed instruction
system.cpu0.commit.op_class_0::SimdFloatMult            0      0.00%     80.76% # Class of committed instruction
system.cpu0.commit.op_class_0::SimdFloatMultAcc            0      0.00%     80.76% # Class of committed instruction
system.cpu0.commit.op_class_0::SimdFloatSqrt            0      0.00%     80.76% # Class of committed instruction
system.cpu0.commit.op_class_0::MemRead        2433886     17.14%     97.90% # Class of committed instruction
system.cpu0.commit.op_class_0::MemWrite        281168      1.98%     99.88% # Class of committed instruction
system.cpu0.commit.op_class_0::FloatMemRead        16384      0.12%    100.00% # Class of committed instruction
system.cpu0.commit.op_class_0::FloatMemWrite            0      0.00%    100.00% # Class of committed instruction
system.cpu0.commit.op_class_0::IprAccess            0      0.00%    100.00% # Class of committed instruction
system.cpu0.commit.op_class_0::InstPrefetch            0      0.00%    100.00% # Class of committed instruction
system.cpu0.commit.op_class_0::total         14199441                       # Class of committed instruction
system.cpu0.commit.bw_lim_events               341767                       # number cycles where commit BW limit reached
system.cpu0.rob.rob_reads                    62757224                       # The number of ROB reads
system.cpu0.rob.rob_writes                   74376410                       # The number of ROB writes
system.cpu0.timesIdled                            484                       # Number of times that the entire CPU went into an idle state and unscheduled itself
system.cpu0.idleCycles                           1577                       # Total number of cycles that the CPU has spent unscheduled due to idling
system.cpu0.committedInsts                    7116346                       # Number of Instructions Simulated
system.cpu0.committedOps                     14199441                       # Number of Ops (including micro ops) Simulated
system.cpu0.cpi                              4.290782                       # CPI: Cycles Per Instruction
system.cpu0.cpi_total                        4.290782                       # CPI: Total CPI of All Threads
system.cpu0.ipc                              0.233058                       # IPC: Instructions Per Cycle
system.cpu0.ipc_total                        0.233058                       # IPC: Total IPC of All Threads
system.cpu0.int_regfile_reads                27434080                       # number of integer regfile reads
system.cpu0.int_regfile_writes               21636582                       # number of integer regfile writes
system.cpu0.fp_regfile_reads                   254743                       # number of floating regfile reads
system.cpu0.fp_regfile_writes                  126860                       # number of floating regfile writes
system.cpu0.cc_regfile_reads                 15846779                       # number of cc regfile reads
system.cpu0.cc_regfile_writes                 7155984                       # number of cc regfile writes
system.cpu0.misc_regfile_reads               12858457                       # number of misc regfile reads
system.cpu0.dcache.tags.pwrStateResidencyTicks::UNDEFINED  15267344125                       # Cumulative time (in ticks) in various power states
system.cpu0.dcache.tags.replacements          1177597                       # number of replacements
system.cpu0.dcache.tags.tagsinuse                 512                       # Cycle average of tags in use
system.cpu0.dcache.tags.total_refs            1992074                       # Total number of references to valid blocks.
system.cpu0.dcache.tags.sampled_refs          1177597                       # Sample count of references to valid blocks.
system.cpu0.dcache.tags.avg_refs             1.691643                       # Average number of references to valid blocks.
system.cpu0.dcache.tags.warmup_cycle                0                       # Cycle when the warmup percentage was hit.
system.cpu0.dcache.tags.occ_blocks::cpu0.data          512                       # Average occupied blocks per requestor
system.cpu0.dcache.tags.occ_percent::cpu0.data            1                       # Average percentage of cache occupancy
system.cpu0.dcache.tags.occ_percent::total            1                       # Average percentage of cache occupancy
system.cpu0.dcache.tags.occ_task_id_blocks::1024          512                       # Occupied blocks per task id
system.cpu0.dcache.tags.age_task_id_blocks_1024::0          471                       # Occupied blocks per task id
system.cpu0.dcache.tags.age_task_id_blocks_1024::1           41                       # Occupied blocks per task id
system.cpu0.dcache.tags.occ_task_id_percent::1024            1                       # Percentage of cache occupancy per task id
system.cpu0.dcache.tags.tag_accesses         17110829                       # Number of tag accesses
system.cpu0.dcache.tags.data_accesses        17110829                       # Number of data accesses
system.cpu0.dcache.pwrStateResidencyTicks::UNDEFINED  15267344125                       # Cumulative time (in ticks) in various power states
system.cpu0.dcache.ReadReq_hits::cpu0.data      1719685                       # number of ReadReq hits
system.cpu0.dcache.ReadReq_hits::total        1719685                       # number of ReadReq hits
system.cpu0.dcache.WriteReq_hits::cpu0.data       271974                       # number of WriteReq hits
system.cpu0.dcache.WriteReq_hits::total        271974                       # number of WriteReq hits
system.cpu0.dcache.demand_hits::cpu0.data      1991659                       # number of demand (read+write) hits
system.cpu0.dcache.demand_hits::total         1991659                       # number of demand (read+write) hits
system.cpu0.dcache.overall_hits::cpu0.data      1991659                       # number of overall hits
system.cpu0.dcache.overall_hits::total        1991659                       # number of overall hits
system.cpu0.dcache.ReadReq_misses::cpu0.data      1982455                       # number of ReadReq misses
system.cpu0.dcache.ReadReq_misses::total      1982455                       # number of ReadReq misses
system.cpu0.dcache.WriteReq_misses::cpu0.data         9194                       # number of WriteReq misses
system.cpu0.dcache.WriteReq_misses::total         9194                       # number of WriteReq misses
system.cpu0.dcache.demand_misses::cpu0.data      1991649                       # number of demand (read+write) misses
system.cpu0.dcache.demand_misses::total       1991649                       # number of demand (read+write) misses
system.cpu0.dcache.overall_misses::cpu0.data      1991649                       # number of overall misses
system.cpu0.dcache.overall_misses::total      1991649                       # number of overall misses
system.cpu0.dcache.ReadReq_miss_latency::cpu0.data  27206760000                       # number of ReadReq miss cycles
system.cpu0.dcache.ReadReq_miss_latency::total  27206760000                       # number of ReadReq miss cycles
system.cpu0.dcache.WriteReq_miss_latency::cpu0.data    383630490                       # number of WriteReq miss cycles
system.cpu0.dcache.WriteReq_miss_latency::total    383630490                       # number of WriteReq miss cycles
system.cpu0.dcache.demand_miss_latency::cpu0.data  27590390490                       # number of demand (read+write) miss cycles
system.cpu0.dcache.demand_miss_latency::total  27590390490                       # number of demand (read+write) miss cycles
system.cpu0.dcache.overall_miss_latency::cpu0.data  27590390490                       # number of overall miss cycles
system.cpu0.dcache.overall_miss_latency::total  27590390490                       # number of overall miss cycles
system.cpu0.dcache.ReadReq_accesses::cpu0.data      3702140                       # number of ReadReq accesses(hits+misses)
system.cpu0.dcache.ReadReq_accesses::total      3702140                       # number of ReadReq accesses(hits+misses)
system.cpu0.dcache.WriteReq_accesses::cpu0.data       281168                       # number of WriteReq accesses(hits+misses)
system.cpu0.dcache.WriteReq_accesses::total       281168                       # number of WriteReq accesses(hits+misses)
system.cpu0.dcache.demand_accesses::cpu0.data      3983308                       # number of demand (read+write) accesses
system.cpu0.dcache.demand_accesses::total      3983308                       # number of demand (read+write) accesses
system.cpu0.dcache.overall_accesses::cpu0.data      3983308                       # number of overall (read+write) accesses
system.cpu0.dcache.overall_accesses::total      3983308                       # number of overall (read+write) accesses
system.cpu0.dcache.ReadReq_miss_rate::cpu0.data     0.535489                       # miss rate for ReadReq accesses
[...]
system.l2.demand_miss_rate::cpu0.data        0.004522                       # miss rate for demand accesses
system.l2.demand_miss_rate::total            0.004522                       # miss rate for demand accesses
system.l2.overall_miss_rate::cpu0.inst       0.012658                       # miss rate for overall accesses
system.l2.overall_miss_rate::cpu0.data       0.004522                       # miss rate for overall accesses
system.l2.overall_miss_rate::total           0.004522                       # miss rate for overall accesses
system.l2.ReadExReq_avg_miss_latency::cpu0.data 106307.040177                       # average ReadExReq miss latency
system.l2.ReadExReq_avg_miss_latency::total 106307.040177                       # average ReadExReq miss latency
system.l2.ReadCleanReq_avg_miss_latency::cpu0.inst        90000                       # average ReadCleanReq miss latency
system.l2.ReadCleanReq_avg_miss_latency::total        90000                       # average ReadCleanReq miss latency
system.l2.ReadSharedReq_avg_miss_latency::cpu0.data 136862.557427                       # average ReadSharedReq miss latency
system.l2.ReadSharedReq_avg_miss_latency::total 136862.557427                       # average ReadSharedReq miss latency
system.l2.demand_avg_miss_latency::cpu0.inst        90000                       # average overall miss latency
system.l2.demand_avg_miss_latency::cpu0.data 121295.023474                       # average overall miss latency
system.l2.demand_avg_miss_latency::total 121289.147578                       # average overall miss latency
system.l2.overall_avg_miss_latency::cpu0.inst        90000                       # average overall miss latency
system.l2.overall_avg_miss_latency::cpu0.data 121295.023474                       # average overall miss latency
system.l2.overall_avg_miss_latency::total 121289.147578                       # average overall miss latency
system.l2.blocked_cycles::no_mshrs                  0                       # number of cycles access was blocked
system.l2.blocked_cycles::no_targets                0                       # number of cycles access was blocked
system.l2.blocked::no_mshrs                         0                       # number of cycles access was blocked
system.l2.blocked::no_targets                       0                       # number of cycles access was blocked
system.l2.avg_blocked_cycles::no_mshrs            nan                       # average number of cycles each access was blocked
system.l2.avg_blocked_cycles::no_targets          nan                       # average number of cycles each access was blocked
system.l2.writebacks::writebacks                 2358                       # number of writebacks
system.l2.writebacks::total                      2358                       # number of writebacks
system.l2.ReadExReq_mshr_misses::cpu0.data         2713                       # number of ReadExReq MSHR misses
system.l2.ReadExReq_mshr_misses::total           2713                       # number of ReadExReq MSHR misses
system.l2.ReadCleanReq_mshr_misses::cpu0.inst            1                       # number of ReadCleanReq MSHR misses
system.l2.ReadCleanReq_mshr_misses::total            1                       # number of ReadCleanReq MSHR misses
system.l2.ReadSharedReq_mshr_misses::cpu0.data         2612                       # number of ReadSharedReq MSHR misses
system.l2.ReadSharedReq_mshr_misses::total         2612                       # number of ReadSharedReq MSHR misses
system.l2.demand_mshr_misses::cpu0.inst             1                       # number of demand (read+write) MSHR misses
system.l2.demand_mshr_misses::cpu0.data          5325                       # number of demand (read+write) MSHR misses
system.l2.demand_mshr_misses::total              5326                       # number of demand (read+write) MSHR misses
system.l2.overall_mshr_misses::cpu0.inst            1                       # number of overall MSHR misses
system.l2.overall_mshr_misses::cpu0.data         5325                       # number of overall MSHR misses
system.l2.overall_mshr_misses::total             5326                       # number of overall MSHR misses
system.l2.ReadExReq_mshr_miss_latency::cpu0.data    261281000                       # number of ReadExReq MSHR miss cycles
system.l2.ReadExReq_mshr_miss_latency::total    261281000                       # number of ReadExReq MSHR miss cycles
system.l2.ReadCleanReq_mshr_miss_latency::cpu0.inst        80000                       # number of ReadCleanReq MSHR miss cycles
system.l2.ReadCleanReq_mshr_miss_latency::total        80000                       # number of ReadCleanReq MSHR miss cycles
system.l2.ReadSharedReq_mshr_miss_latency::cpu0.data    331365000                       # number of ReadSharedReq MSHR miss cycles
system.l2.ReadSharedReq_mshr_miss_latency::total    331365000                       # number of ReadSharedReq MSHR miss cycles
system.l2.demand_mshr_miss_latency::cpu0.inst        80000                       # number of demand (read+write) MSHR miss cycles
system.l2.demand_mshr_miss_latency::cpu0.data    592646000                       # number of demand (read+write) MSHR miss cycles
system.l2.demand_mshr_miss_latency::total    592726000                       # number of demand (read+write) MSHR miss cycles
system.l2.overall_mshr_miss_latency::cpu0.inst        80000                       # number of overall MSHR miss cycles
system.l2.overall_mshr_miss_latency::cpu0.data    592646000                       # number of overall MSHR miss cycles
system.l2.overall_mshr_miss_latency::total    592726000                       # number of overall MSHR miss cycles
system.l2.ReadExReq_mshr_miss_rate::cpu0.data     0.296308                       # mshr miss rate for ReadExReq accesses
system.l2.ReadExReq_mshr_miss_rate::total     0.296308                       # mshr miss rate for ReadExReq accesses
system.l2.ReadCleanReq_mshr_miss_rate::cpu0.inst     0.012658                       # mshr miss rate for ReadCleanReq accesses
system.l2.ReadCleanReq_mshr_miss_rate::total     0.012658                       # mshr miss rate for ReadCleanReq accesses
system.l2.ReadSharedReq_mshr_miss_rate::cpu0.data     0.002235                       # mshr miss rate for ReadSharedReq accesses
system.l2.ReadSharedReq_mshr_miss_rate::total     0.002235                       # mshr miss rate for ReadSharedReq accesses
system.l2.demand_mshr_miss_rate::cpu0.inst     0.012658                       # mshr miss rate for demand accesses
system.l2.demand_mshr_miss_rate::cpu0.data     0.004522                       # mshr miss rate for demand accesses
system.l2.demand_mshr_miss_rate::total       0.004522                       # mshr miss rate for demand accesses
system.l2.overall_mshr_miss_rate::cpu0.inst     0.012658                       # mshr miss rate for overall accesses
system.l2.overall_mshr_miss_rate::cpu0.data     0.004522                       # mshr miss rate for overall accesses
system.l2.overall_mshr_miss_rate::total      0.004522                       # mshr miss rate for overall accesses
system.l2.ReadExReq_avg_mshr_miss_latency::cpu0.data 96307.040177                       # average ReadExReq mshr miss latency
system.l2.ReadExReq_avg_mshr_miss_latency::total 96307.040177                       # average ReadExReq mshr miss latency
system.l2.ReadCleanReq_avg_mshr_miss_latency::cpu0.inst        80000                       # average ReadCleanReq mshr miss latency
system.l2.ReadCleanReq_avg_mshr_miss_latency::total        80000                       # average ReadCleanReq mshr miss latency
system.l2.ReadSharedReq_avg_mshr_miss_latency::cpu0.data 126862.557427                       # average ReadSharedReq mshr miss latency
system.l2.ReadSharedReq_avg_mshr_miss_latency::total 126862.557427                       # average ReadSharedReq mshr miss latency
system.l2.demand_avg_mshr_miss_latency::cpu0.inst        80000                       # average overall mshr miss latency
system.l2.demand_avg_mshr_miss_latency::cpu0.data 111295.023474                       # average overall mshr miss latency
system.l2.demand_avg_mshr_miss_latency::total 111289.147578                       # average overall mshr miss latency
system.l2.overall_avg_mshr_miss_latency::cpu0.inst        80000                       # average overall mshr miss latency
system.l2.overall_avg_mshr_miss_latency::cpu0.data 111295.023474                       # average overall mshr miss latency
system.l2.overall_avg_mshr_miss_latency::total 111289.147578                       # average overall mshr miss latency
system.membus.snoop_filter.tot_requests         10626                       # Total number of requests made to the snoop filter.
system.membus.snoop_filter.hit_single_requests         5300                       # Number of requests hitting in the snoop filter with a single holder of the requested data.
system.membus.snoop_filter.hit_multi_requests            0                       # Number of requests hitting in the snoop filter with multiple (>1) holders of the requested data.
system.membus.snoop_filter.tot_snoops               0                       # Total number of snoops made to the snoop filter.
system.membus.snoop_filter.hit_single_snoops            0                       # Number of snoops hitting in the snoop filter with a single holder of the requested data.
system.membus.snoop_filter.hit_multi_snoops            0                       # Number of snoops hitting in the snoop filter with multiple (>1) holders of the requested data.
system.membus.pwrStateResidencyTicks::UNDEFINED  15267344125                       # Cumulative time (in ticks) in various power states
system.membus.trans_dist::ReadResp               2613                       # Transaction distribution
system.membus.trans_dist::WritebackDirty         2358                       # Transaction distribution
system.membus.trans_dist::CleanEvict             2942                       # Transaction distribution
system.membus.trans_dist::ReadExReq              2713                       # Transaction distribution
system.membus.trans_dist::ReadExResp             2713                       # Transaction distribution
system.membus.trans_dist::ReadSharedReq          2613                       # Transaction distribution
system.membus.pkt_count_system.l2.mem_side::system.mem_ctrls.port        15952                       # Packet count per connected master and slave (bytes)
system.membus.pkt_count_system.l2.mem_side::total        15952                       # Packet count per connected master and slave (bytes)
system.membus.pkt_count::total                  15952                       # Packet count per connected master and slave (bytes)
system.membus.pkt_size_system.l2.mem_side::system.mem_ctrls.port       491776                       # Cumulative packet size per connected master and slave (bytes)
system.membus.pkt_size_system.l2.mem_side::total       491776                       # Cumulative packet size per connected master and slave (bytes)
system.membus.pkt_size::total                  491776                       # Cumulative packet size per connected master and slave (bytes)
system.membus.snoops                                0                       # Total snoops (count)
system.membus.snoopTraffic                          0                       # Total snoop traffic (bytes)
system.membus.snoop_fanout::samples              5326                       # Request fanout histogram
system.membus.snoop_fanout::mean                    0                       # Request fanout histogram
system.membus.snoop_fanout::stdev                   0                       # Request fanout histogram
system.membus.snoop_fanout::underflows              0      0.00%      0.00% # Request fanout histogram
system.membus.snoop_fanout::0                    5326    100.00%    100.00% # Request fanout histogram
system.membus.snoop_fanout::1                       0      0.00%    100.00% # Request fanout histogram
system.membus.snoop_fanout::overflows               0      0.00%    100.00% # Request fanout histogram
system.membus.snoop_fanout::min_value               0                       # Request fanout histogram
system.membus.snoop_fanout::max_value               0                       # Request fanout histogram
system.membus.snoop_fanout::total                5326                       # Request fanout histogram
system.membus.reqLayer12.occupancy           21358000                       # Layer occupancy (ticks)
system.membus.reqLayer12.utilization              0.1                       # Layer utilization (%)
system.membus.respLayer1.occupancy           28993000                       # Layer occupancy (ticks)
system.membus.respLayer1.utilization              0.2                       # Layer utilization (%)
system.tol2bus.snoop_filter.tot_requests      2355352                       # Total number of requests made to the snoop filter.
system.tol2bus.snoop_filter.hit_single_requests      1177676                       # Number of requests hitting in the snoop filter with a single holder of the requested data.
system.tol2bus.snoop_filter.hit_multi_requests         3227                       # Number of requests hitting in the snoop filter with multiple (>1) holders of the requested data.
system.tol2bus.snoop_filter.tot_snoops             28                       # Total number of snoops made to the snoop filter.
system.tol2bus.snoop_filter.hit_single_snoops           28                       # Number of snoops hitting in the snoop filter with a single holder of the requested data.
system.tol2bus.snoop_filter.hit_multi_snoops            0                       # Number of snoops hitting in the snoop filter with multiple (>1) holders of the requested data.
system.tol2bus.pwrStateResidencyTicks::UNDEFINED  15267344125                       # Cumulative time (in ticks) in various power states
system.tol2bus.trans_dist::ReadResp           1168520                       # Transaction distribution
system.tol2bus.trans_dist::WritebackDirty      1158085                       # Transaction distribution
system.tol2bus.trans_dist::WritebackClean           79                       # Transaction distribution
system.tol2bus.trans_dist::CleanEvict           24840                       # Transaction distribution
system.tol2bus.trans_dist::ReadExReq             9156                       # Transaction distribution
system.tol2bus.trans_dist::ReadExResp            9156                       # Transaction distribution
system.tol2bus.trans_dist::ReadCleanReq            79                       # Transaction distribution
system.tol2bus.trans_dist::ReadSharedReq      1168441                       # Transaction distribution
system.tol2bus.pkt_count_system.cpu0.icache.mem_side::system.l2.cpu_side          237                       # Packet count per connected master and slave (bytes)
system.tol2bus.pkt_count_system.cpu0.dcache.mem_side::system.l2.cpu_side      3532791                       # Packet count per connected master and slave (bytes)
system.tol2bus.pkt_count::total               3533028                       # Packet count per connected master and slave (bytes)
system.tol2bus.pkt_size_system.cpu0.icache.mem_side::system.l2.cpu_side        10112                       # Cumulative packet size per connected master and slave (bytes)
system.tol2bus.pkt_size_system.cpu0.dcache.mem_side::system.l2.cpu_side    149332736                       # Cumulative packet size per connected master and slave (bytes)
system.tol2bus.pkt_size::total              149342848                       # Cumulative packet size per connected master and slave (bytes)
system.tol2bus.snoops                            5328                       # Total snoops (count)
system.tol2bus.snoopTraffic                    150912                       # Total snoop traffic (bytes)
system.tol2bus.snoop_fanout::samples          1183004                       # Request fanout histogram
system.tol2bus.snoop_fanout::mean            0.002751                       # Request fanout histogram
system.tol2bus.snoop_fanout::stdev           0.052382                       # Request fanout histogram
system.tol2bus.snoop_fanout::underflows             0      0.00%      0.00% # Request fanout histogram
system.tol2bus.snoop_fanout::0                1179749     99.72%     99.72% # Request fanout histogram
system.tol2bus.snoop_fanout::1                   3255      0.28%    100.00% # Request fanout histogram
system.tol2bus.snoop_fanout::2                      0      0.00%    100.00% # Request fanout histogram
system.tol2bus.snoop_fanout::3                      0      0.00%    100.00% # Request fanout histogram
system.tol2bus.snoop_fanout::4                      0      0.00%    100.00% # Request fanout histogram
system.tol2bus.snoop_fanout::5                      0      0.00%    100.00% # Request fanout histogram
system.tol2bus.snoop_fanout::6                      0      0.00%    100.00% # Request fanout histogram
system.tol2bus.snoop_fanout::7                      0      0.00%    100.00% # Request fanout histogram
system.tol2bus.snoop_fanout::8                      0      0.00%    100.00% # Request fanout histogram
system.tol2bus.snoop_fanout::9                      0      0.00%    100.00% # Request fanout histogram
system.tol2bus.snoop_fanout::10                     0      0.00%    100.00% # Request fanout histogram
system.tol2bus.snoop_fanout::11                     0      0.00%    100.00% # Request fanout histogram
system.tol2bus.snoop_fanout::12                     0      0.00%    100.00% # Request fanout histogram
system.tol2bus.snoop_fanout::13                     0      0.00%    100.00% # Request fanout histogram
system.tol2bus.snoop_fanout::14                     0      0.00%    100.00% # Request fanout histogram
system.tol2bus.snoop_fanout::15                     0      0.00%    100.00% # Request fanout histogram
system.tol2bus.snoop_fanout::16                     0      0.00%    100.00% # Request fanout histogram
system.tol2bus.snoop_fanout::17                     0      0.00%    100.00% # Request fanout histogram
system.tol2bus.snoop_fanout::18                     0      0.00%    100.00% # Request fanout histogram
system.tol2bus.snoop_fanout::19                     0      0.00%    100.00% # Request fanout histogram
system.tol2bus.snoop_fanout::20                     0      0.00%    100.00% # Request fanout histogram
system.tol2bus.snoop_fanout::21                     0      0.00%    100.00% # Request fanout histogram
system.tol2bus.snoop_fanout::22                     0      0.00%    100.00% # Request fanout histogram
system.tol2bus.snoop_fanout::23                     0      0.00%    100.00% # Request fanout histogram
system.tol2bus.snoop_fanout::24                     0      0.00%    100.00% # Request fanout histogram
system.tol2bus.snoop_fanout::overflows              0      0.00%    100.00% # Request fanout histogram
system.tol2bus.snoop_fanout::min_value              0                       # Request fanout histogram
system.tol2bus.snoop_fanout::max_value              1                       # Request fanout histogram
system.tol2bus.snoop_fanout::total            1183004                       # Request fanout histogram
system.tol2bus.reqLayer0.occupancy         2333482000                       # Layer occupancy (ticks)
system.tol2bus.reqLayer0.utilization             15.3                       # Layer utilization (%)
system.tol2bus.respLayer0.occupancy            118999                       # Layer occupancy (ticks)
system.tol2bus.respLayer0.utilization             0.0                       # Layer utilization (%)
system.tol2bus.respLayer1.occupancy        1766395500                       # Layer occupancy (ticks)
system.tol2bus.respLayer1.utilization            11.6                       # Layer utilization (%)

---------- End Simulation Statistics   ----------
