
---------- Begin Simulation Statistics ----------
sim_seconds                                  0.015267                       # Number of seconds simulated
sim_ticks                                 15267344125                       # Number of ticks simulated
final_tick                               442752979625                       # Number of ticks from beginning of simulation (restored from checkpoints and never reset)
sim_freq                                 1000000000000                       # Frequency of simulated ticks
host_inst_rate                                2481813                       # Simulator instruction rate (inst/s)
host_op_rate                                  4687704                       # Simulator op (including micro ops) rate (op/s)
host_tick_rate                               38831546                       # Simulator tick rate (ticks/s)
host_mem_usage                                3398364                       # Number of bytes of host memory used
host_seconds                                   393.17                       # Real time elapsed on the host
sim_insts                                   975770850                       # Number of instructions simulated
sim_ops                                    1843057947                       # Number of ops (including micro ops) simulated
system.voltage_domain.voltage                       1                       # Voltage in Volts
system.clk_domain.clock                          1000                       # Clock period in ticks
system.mem_ctrls.pwrStateResidencyTicks::UNDEFINED  15267344125                       # Cumulative time (in ticks) in various power states
system.mem_ctrls.bytes_read::cpu0.data         209856                       # Number of bytes read from this memory
system.mem_ctrls.bytes_read::total             209856                       # Number of bytes read from this memory
system.mem_ctrls.num_reads::cpu0.data            3279                       # Number of read requests responded to by this memory
system.mem_ctrls.num_reads::total                3279                       # Number of read requests responded to by this memory
system.mem_ctrls.bw_read::cpu0.data          13745416                       # Total read bandwidth from this memory (bytes/s)
system.mem_ctrls.bw_read::total              13745416                       # Total read bandwidth from this memory (bytes/s)
system.mem_ctrls.bw_total::cpu0.data         13745416                       # Total bandwidth to/from this memory (bytes/s)
system.mem_ctrls.bw_total::total             13745416                       # Total bandwidth to/from this memory (bytes/s)
system.mem_ctrls.readReqs                        3279                       # Number of read requests accepted
system.mem_ctrls.writeReqs                          0                       # Number of write requests accepted
system.mem_ctrls.readBursts                      3279                       # Number of DRAM read bursts, including those serviced by the write queue
system.mem_ctrls.writeBursts                        0                       # Number of DRAM write bursts, including those merged in the write queue
system.mem_ctrls.bytesReadDRAM                 209856                       # Total number of bytes read from DRAM
system.mem_ctrls.bytesReadWrQ                       0                       # Total number of bytes read from write queue
system.mem_ctrls.bytesWritten                       0                       # Total number of bytes written to DRAM
system.mem_ctrls.bytesReadSys                  209856                       # Total read bytes from the system interface side
system.mem_ctrls.bytesWrittenSys                    0                       # Total written bytes from the system interface side
system.mem_ctrls.servicedByWrQ                      0                       # Number of DRAM read bursts serviced by the write queue
system.mem_ctrls.mergedWrBursts                     0                       # Number of DRAM write bursts merged with an existing one
system.mem_ctrls.neitherReadNorWriteReqs            0                       # Number of requests that are neither read nor write
system.mem_ctrls.perBankRdBursts::0               128                       # Per bank write bursts
system.mem_ctrls.perBankRdBursts::1               128                       # Per bank write bursts
system.mem_ctrls.perBankRdBursts::2                72                       # Per bank write bursts
system.mem_ctrls.perBankRdBursts::3                 0                       # Per bank write bursts
system.mem_ctrls.perBankRdBursts::4               118                       # Per bank write bursts
system.mem_ctrls.perBankRdBursts::5               256                       # Per bank write bursts
system.mem_ctrls.perBankRdBursts::6               256                       # Per bank write bursts
system.mem_ctrls.perBankRdBursts::7               256                       # Per bank write bursts
system.mem_ctrls.perBankRdBursts::8               256                       # Per bank write bursts
system.mem_ctrls.perBankRdBursts::9               256                       # Per bank write bursts
system.mem_ctrls.perBankRdBursts::10              256                       # Per bank write bursts
system.mem_ctrls.perBankRdBursts::11              256                       # Per bank write bursts
system.mem_ctrls.perBankRdBursts::12              344                       # Per bank write bursts
system.mem_ctrls.perBankRdBursts::13              324                       # Per bank write bursts
system.mem_ctrls.perBankRdBursts::14              245                       # Per bank write bursts
system.mem_ctrls.perBankRdBursts::15              128                       # Per bank write bursts
system.mem_ctrls.perBankWrBursts::0                 0                       # Per bank write bursts
system.mem_ctrls.perBankWrBursts::1                 0                       # Per bank write bursts
system.mem_ctrls.perBankWrBursts::2                 0                       # Per bank write bursts
system.mem_ctrls.perBankWrBursts::3                 0                       # Per bank write bursts
system.mem_ctrls.perBankWrBursts::4                 0                       # Per bank write bursts
system.mem_ctrls.perBankWrBursts::5                 0                       # Per bank write bursts
system.mem_ctrls.perBankWrBursts::6                 0                       # Per bank write bursts
system.mem_ctrls.perBankWrBursts::7                 0                       # Per bank write bursts
system.mem_ctrls.perBankWrBursts::8                 0                       # Per bank write bursts
system.mem_ctrls.perBankWrBursts::9                 0                       # Per bank write bursts
system.mem_ctrls.perBankWrBursts::10                0                       # Per bank write bursts
system.mem_ctrls.perBankWrBursts::11                0                       # Per bank write bursts
system.mem_ctrls.perBankWrBursts::12                0                       # Per bank write bursts
system.mem_ctrls.perBankWrBursts::13                0                       # Per bank write bursts
system.mem_ctrls.perBankWrBursts::14                0                       # Per bank write bursts
system.mem_ctrls.perBankWrBursts::15                0                       # Per bank write bursts
system.mem_ctrls.numRdRetry                         0                       # Number of times read queue was full causing retry
system.mem_ctrls.numWrRetry                         0                       # Number of times write queue was full causing retry
system.mem_ctrls.totGap                   15266058000                       # Total gap between requests
system.mem_ctrls.readPktSize::0                     0                       # Read request sizes (log2)
system.mem_ctrls.readPktSize::1                     0                       # Read request sizes (log2)
system.mem_ctrls.readPktSize::2                     0                       # Read request sizes (log2)
system.mem_ctrls.readPktSize::3                     0                       # Read request sizes (log2)
system.mem_ctrls.readPktSize::4                     0                       # Read request sizes (log2)
system.mem_ctrls.readPktSize::5                     0                       # Read request sizes (log2)
system.mem_ctrls.readPktSize::6                  3279                       # Read request sizes (log2)
system.mem_ctrls.writePktSize::0                    0                       # Write request sizes (log2)
system.mem_ctrls.writePktSize::1                    0                       # Write request sizes (log2)
system.mem_ctrls.writePktSize::2                    0                       # Write request sizes (log2)
system.mem_ctrls.writePktSize::3                    0                       # Write request sizes (log2)
system.mem_ctrls.writePktSize::4                    0                       # Write request sizes (log2)
system.mem_ctrls.writePktSize::5                    0                       # Write request sizes (log2)
system.mem_ctrls.writePktSize::6                    0                       # Write request sizes (log2)
system.mem_ctrls.rdQLenPdf::0                    3279                       # What read queue length does an incoming req see
system.mem_ctrls.rdQLenPdf::1                       0                       # What read queue length does an incoming req see
system.mem_ctrls.rdQLenPdf::2                       0                       # What read queue length does an incoming req see
system.mem_ctrls.rdQLenPdf::3                       0                       # What read queue length does an incoming req see
system.mem_ctrls.rdQLenPdf::4                       0                       # What read queue length does an incoming req see
system.mem_ctrls.rdQLenPdf::5                       0                       # What read queue length does an incoming req see
system.mem_ctrls.rdQLenPdf::6                       0                       # What read queue length does an incoming req see
system.mem_ctrls.rdQLenPdf::7                       0                       # What read queue length does an incoming req see
system.mem_ctrls.rdQLenPdf::8                       0                       # What read queue length does an incoming req see
system.mem_ctrls.rdQLenPdf::9                       0                       # What read queue length does an incoming req see
system.mem_ctrls.rdQLenPdf::10                      0                       # What read queue length does an incoming req see
system.mem_ctrls.rdQLenPdf::11                      0                       # What read queue length does an incoming req see
system.mem_ctrls.rdQLenPdf::12                      0                       # What read queue length does an incoming req see
system.mem_ctrls.rdQLenPdf::13                      0                       # What read queue length does an incoming req see
system.mem_ctrls.rdQLenPdf::14                      0                       # What read queue length does an incoming req see
system.mem_ctrls.rdQLenPdf::15                      0                       # What read queue length does an incoming req see
system.mem_ctrls.rdQLenPdf::16                      0                       # What read queue length does an incoming req see
system.mem_ctrls.rdQLenPdf::17                      0                       # What read queue length does an incoming req see
system.mem_ctrls.rdQLenPdf::18                      0                       # What read queue length does an incoming req see
system.mem_ctrls.rdQLenPdf::19                      0                       # What read queue length does an incoming req see
system.mem_ctrls.rdQLenPdf::20                      0                       # What read queue length does an incoming req see
system.mem_ctrls.rdQLenPdf::21                      0                       # What read queue length does an incoming req see
system.mem_ctrls.rdQLenPdf::22                      0                       # What read queue length does an incoming req see
system.mem_ctrls.rdQLenPdf::23                      0                       # What read queue length does an incoming req see
system.mem_ctrls.rdQLenPdf::24                      0                       # What read queue length does an incoming req see
system.mem_ctrls.rdQLenPdf::25                      0                       # What read queue length does an incoming req see
system.mem_ctrls.rdQLenPdf::26                      0                       # What read queue length does an incoming req see
system.mem_ctrls.rdQLenPdf::27                      0                       # What read queue length does an incoming req see
system.mem_ctrls.rdQLenPdf::28                      0                       # What read queue length does an incoming req see
system.mem_ctrls.rdQLenPdf::29                      0                       # What read queue length does an incoming req see
system.mem_ctrls.rdQLenPdf::30                      0                       # What read queue length does an incoming req see
system.mem_ctrls.rdQLenPdf::31                      0                       # What read queue length does an incoming req see
system.mem_ctrls.wrQLenPdf::0                       0                       # What write queue length does an incoming req see
system.mem_ctrls.wrQLenPdf::1                       0                       # What write queue length does an incoming req see
system.mem_ctrls.wrQLenPdf::2                       0                       # What write queue length does an incoming req see
system.mem_ctrls.wrQLenPdf::3                       0                       # What write queue length does an incoming req see
system.mem_ctrls.wrQLenPdf::4                       0                       # What write queue length does an incoming req see
system.mem_ctrls.wrQLenPdf::5                       0                       # What write queue length does an incoming req see
system.mem_ctrls.wrQLenPdf::6                       0                       # What write queue length does an incoming req see
system.mem_ctrls.wrQLenPdf::7                       0                       # What write queue length does an incoming req see
system.mem_ctrls.wrQLenPdf::8                       0                       # What write queue length does an incoming req see
system.mem_ctrls.wrQLenPdf::9                       0                       # What write queue length does an incoming req see
system.mem_ctrls.wrQLenPdf::10                      0                       # What write queue length does an incoming req see
system.mem_ctrls.wrQLenPdf::11                      0                       # What write queue length does an incoming req see
system.mem_ctrls.wrQLenPdf::12                      0                       # What write queue length does an incoming req see
system.mem_ctrls.wrQLenPdf::13                      0                       # What write queue length does an incoming req see
system.mem_ctrls.wrQLenPdf::14                      0                       # What write queue length does an incoming req see
system.mem_ctrls.wrQLenPdf::15                      0                       # What write queue length does an incoming req see
system.mem_ctrls.wrQLenPdf::16                      0                       # What write queue length does an incoming req see
system.mem_ctrls.wrQLenPdf::17                      0                       # What write queue length does an incoming req see
system.mem_ctrls.wrQLenPdf::18                      0                       # What write queue length does an incoming req see
system.mem_ctrls.wrQLenPdf::19                      0                       # What write queue length does an incoming req see
system.mem_ctrls.wrQLenPdf::20                      0                       # What write queue length does an incoming req see
system.mem_ctrls.wrQLenPdf::21                      0                       # What write queue length does an incoming req see
system.mem_ctrls.wrQLenPdf::22                      0                       # What write queue length does an incoming req see
system.mem_ctrls.wrQLenPdf::23                      0                       # What write queue length does an incoming req see
system.mem_ctrls.wrQLenPdf::24                      0                       # What write queue length does an incoming req see
system.mem_ctrls.wrQLenPdf::25                      0                       # What write queue length does an incoming req see
system.mem_ctrls.wrQLenPdf::26                      0                       # What write queue length does an incoming req see
system.mem_ctrls.wrQLenPdf::27                      0                       # What write queue length does an incoming req see
system.mem_ctrls.wrQLenPdf::28                      0                       # What write queue length does an incoming req see
system.mem_ctrls.wrQLenPdf::29                      0                       # What write queue length does an incoming req see
system.mem_ctrls.wrQLenPdf::30                      0                       # What write queue length does an incoming req see
system.mem_ctrls.wrQLenPdf::31                      0                       # What write queue length does an incoming req see
system.mem_ctrls.wrQLenPdf::32                      0                       # What write queue length does an incoming req see
system.mem_ctrls.wrQLenPdf::33                      0                       # What write queue length does an incoming req see
system.mem_ctrls.wrQLenPdf::34                      0                       # What write queue length does an incoming req see
system.mem_ctrls.wrQLenPdf::35                      0                       # What write queue length does an incoming req see
system.mem_ctrls.wrQLenPdf::36                      0                       # What write queue length does an incoming req see
system.mem_ctrls.wrQLenPdf::37                      0                       # What write queue length does an incoming req see
system.mem_ctrls.wrQLenPdf::38                      0                       # What write queue length does an incoming req see
system.mem_ctrls.wrQLenPdf::39                      0                       # What write queue length does an incoming req see
system.mem_ctrls.wrQLenPdf::40                      0                       # What write queue length does an incoming req see
system.mem_ctrls.wrQLenPdf::41                      0                       # What write queue length does an incoming req see
system.mem_ctrls.wrQLenPdf::42                      0                       # What write queue length does an incoming req see
system.mem_ctrls.wrQLenPdf::43                      0                       # What write queue length does an incoming req see
system.mem_ctrls.wrQLenPdf::44                      0                       # What write queue length does an incoming req see
system.mem_ctrls.wrQLenPdf::45                      0                       # What write queue length does an incoming req see
system.mem_ctrls.wrQLenPdf::46                      0                       # What write queue length does an incoming req see
system.mem_ctrls.wrQLenPdf::47                      0                       # What write queue length does an incoming req see
system.mem_ctrls.wrQLenPdf::48                      0                       # What write queue length does an incoming req see
system.mem_ctrls.wrQLenPdf::49                      0                       # What write queue length does an incoming req see
system.mem_ctrls.wrQLenPdf::50                      0                       # What write queue length does an incoming req see
system.mem_ctrls.wrQLenPdf::51                      0                       # What write queue length does an incoming req see
system.mem_ctrls.wrQLenPdf::52                      0                       # What write queue length does an incoming req see
system.mem_ctrls.wrQLenPdf::53                      0                       # What write queue length does an incoming req see
system.mem_ctrls.wrQLenPdf::54                      0                       # What write queue length does an incoming req see
system.mem_ctrls.wrQLenPdf::55                      0                       # What write queue length does an incoming req see
system.mem_ctrls.wrQLenPdf::56                      0                       # What write queue length does an incoming req see
system.mem_ctrls.wrQLenPdf::57                      0                       # What write queue length does an incoming req see
system.mem_ctrls.wrQLenPdf::58                      0                       # What write queue length does an incoming req see
system.mem_ctrls.wrQLenPdf::59                      0                       # What write queue length does an incoming req see
system.mem_ctrls.wrQLenPdf::60                      0                       # What write queue length does an incoming req see
system.mem_ctrls.wrQLenPdf::61                      0                       # What write queue length does an incoming req see
system.mem_ctrls.wrQLenPdf::62                      0                       # What write queue length does an incoming req see
system.mem_ctrls.wrQLenPdf::63                      0                       # What write queue length does an incoming req see
system.mem_ctrls.bytesPerActivate::samples         3233                       # Bytes accessed per row activation
system.mem_ctrls.bytesPerActivate::mean     64.930405                       # Bytes accessed per row activation
system.mem_ctrls.bytesPerActivate::gmean    64.648168                       # Bytes accessed per row activation
system.mem_ctrls.bytesPerActivate::stdev     7.661490                       # Bytes accessed per row activation
system.mem_ctrls.bytesPerActivate::64-79         3186     98.55%     98.55% # Bytes accessed per row activation
system.mem_ctrls.bytesPerActivate::128-143           47      1.45%    100.00% # Bytes accessed per row activation
system.mem_ctrls.bytesPerActivate::total         3233                       # Bytes accessed per row activation
system.mem_ctrls.totQLat                    260642500                       # Total ticks spent queuing
system.mem_ctrls.totMemAccLat               322123750                       # Total ticks spent from burst creation until serviced by the DRAM
system.mem_ctrls.totBusLat                   16395000                       # Total ticks spent in databus transfers
system.mem_ctrls.avgQLat                     79488.41                       # Average queueing delay per DRAM burst
system.mem_ctrls.avgBusLat                    5000.00                       # Average bus latency per DRAM burst
system.mem_ctrls.avgMemAccLat                98238.41                       # Average memory access latency per DRAM burst
system.mem_ctrls.avgRdBW                        13.75                       # Average DRAM read bandwidth in MiByte/s
system.mem_ctrls.avgWrBW                         0.00                       # Average achieved write bandwidth in MiByte/s
system.mem_ctrls.avgRdBWSys                     13.75                       # Average system read bandwidth in MiByte/s
system.mem_ctrls.avgWrBWSys                      0.00                       # Average system write bandwidth in MiByte/s
system.mem_ctrls.peakBW                      12800.00                       # Theoretical peak bandwidth in MiByte/s
system.mem_ctrls.busUtil                         0.11                       # Data bus utilization in percentage
system.mem_ctrls.busUtilRead                     0.11                       # Data bus utilization in percentage for reads
system.mem_ctrls.busUtilWrite                    0.00                       # Data bus utilization in percentage for writes
system.mem_ctrls.avgRdQLen                       1.00                       # Average read queue length when enqueuing
system.mem_ctrls.avgWrQLen                      31.00                       # Average write queue length when enqueuing
system.mem_ctrls.readRowHits                       47                       # Number of row buffer hits during reads
system.mem_ctrls.writeRowHits                       0                       # Number of row buffer hits during writes
system.mem_ctrls.readRowHitRate                  1.43                       # Row buffer hit rate for reads
system.mem_ctrls.writeRowHitRate                  nan                       # Row buffer hit rate for writes
system.mem_ctrls.avgGap                    4655705.40                       # Average gap between requests
system.mem_ctrls.pageHitRate                     1.43                       # Row buffer hit rate, read and write combined
system.mem_ctrls_0.actEnergy                  8532300                       # Energy for activate commands per rank (pJ)
system.mem_ctrls_0.preEnergy                  4538820                       # Energy for precharge commands per rank (pJ)
system.mem_ctrls_0.readEnergy                 8667960                       # Energy for read commands per rank (pJ)
system.mem_ctrls_0.writeEnergy                      0                       # Energy for write commands per rank (pJ)
system.mem_ctrls_0.refreshEnergy         700689600.000000                       # Energy for refresh commands per rank (pJ)
system.mem_ctrls_0.actBackEnergy            149175840                       # Energy for active background per rank (pJ)
system.mem_ctrls_0.preBackEnergy             24214080                       # Energy for precharge background per rank (pJ)
system.mem_ctrls_0.actPowerDownEnergy      1829251980                       # Energy for active power-down per rank (pJ)
system.mem_ctrls_0.prePowerDownEnergy      1426458720                       # Energy for precharge power-down per rank (pJ)
system.mem_ctrls_0.selfRefreshEnergy       1773652560                       # Energy for self refresh per rank (pJ)
system.mem_ctrls_0.totalEnergy             5925721740                       # Total energy per rank (pJ)
system.mem_ctrls_0.averagePower            388.130489                       # Core power per rank (mW)
system.mem_ctrls_0.totalIdleTime          14875882500                       # Total Idle time Per DRAM Rank
system.mem_ctrls_0.memoryStateTime::IDLE     32910000                       # Time in different power states
system.mem_ctrls_0.memoryStateTime::REF     297108125                       # Time in different power states
system.mem_ctrls_0.memoryStateTime::SREF   7149706250                       # Time in different power states
system.mem_ctrls_0.memoryStateTime::PRE_PDN   3714687000                       # Time in different power states
system.mem_ctrls_0.memoryStateTime::ACT      61443500                       # Time in different power states
system.mem_ctrls_0.memoryStateTime::ACT_PDN   4011489250                       # Time in different power states
system.mem_ctrls_1.actEnergy                 14544180                       # Energy for activate commands per rank (pJ)
system.mem_ctrls_1.preEnergy                  7730415                       # Energy for precharge commands per rank (pJ)
system.mem_ctrls_1.readEnergy                14744100                       # Energy for read commands per rank (pJ)
system.mem_ctrls_1.writeEnergy                      0                       # Energy for write commands per rank (pJ)
system.mem_ctrls_1.refreshEnergy         1118030160.000000                       # Energy for refresh commands per rank (pJ)
system.mem_ctrls_1.actBackEnergy            240440250                       # Energy for active background per rank (pJ)
system.mem_ctrls_1.preBackEnergy             43391040                       # Energy for precharge background per rank (pJ)
system.mem_ctrls_1.actPowerDownEnergy      2943572910                       # Energy for active power-down per rank (pJ)
system.mem_ctrls_1.prePowerDownEnergy      2050270080                       # Energy for precharge power-down per rank (pJ)
system.mem_ctrls_1.selfRefreshEnergy        811261020                       # Energy for self refresh per rank (pJ)
system.mem_ctrls_1.totalEnergy             7245172215                       # Total energy per rank (pJ)
system.mem_ctrls_1.averagePower            474.553541                       # Core power per rank (mW)
system.mem_ctrls_1.totalIdleTime          14622997250                       # Total Idle time Per DRAM Rank
system.mem_ctrls_1.memoryStateTime::IDLE     70758000                       # Time in different power states
system.mem_ctrls_1.memoryStateTime::REF     474494000                       # Time in different power states
system.mem_ctrls_1.memoryStateTime::SREF   2829956500                       # Time in different power states
system.mem_ctrls_1.memoryStateTime::PRE_PDN   5339167375                       # Time in different power states
system.mem_ctrls_1.memoryStateTime::ACT      97724000                       # Time in different power states
system.mem_ctrls_1.memoryStateTime::ACT_PDN   6455244250                       # Time in different power states
system.pwrStateResidencyTicks::UNDEFINED  15267344125                       # Cumulative time (in ticks) in various power states
system.cpu0.branchPred.lookups               12835435                       # Number of BP lookups
system.cpu0.branchPred.condPredicted         12835435                       # Number of conditional branches predicted
system.cpu0.branchPred.condIncorrect          1054014                       # Number of conditional branches incorrect
system.cpu0.branchPred.BTBLookups            10745373                       # Number of BTB lookups
system.cpu0.branchPred.BTBHits                      0                       # Number of BTB hits
system.cpu0.branchPred.BTBCorrect                   0                       # Number of correct BTB predictions (this stat may not work properly.
system.cpu0.branchPred.BTBHitPct             0.000000                       # BTB Hit Percentage
system.cpu0.branchPred.usedRAS                 952958                       # Number of times the RAS was used to get a target.
system.cpu0.branchPred.RASInCorrect            203726                       # Number of incorrect RAS predictions.
system.cpu0.branchPred.indirectLookups       10745373                       # Number of indirect predictor lookups.
system.cpu0.branchPred.indirectHits           3552492                       # Number of indirect target hits.
system.cpu0.branchPred.indirectMisses         7192881                       # Number of indirect misses.
system.cpu0.branchPredindirectMispredicted       759132                       # Number of mispredicted indirect branches.
system.cpu_voltage_domain.voltage                   1                       # Voltage in Volts
system.cpu_clk_domain.clock                       500                       # Clock period in ticks
system.cpu0.dtb.walker.pwrStateResidencyTicks::UNDEFINED  15267344125                       # Cumulative time (in ticks) in various power states
system.cpu0.dtb.rdAccesses                    9732915                       # TLB accesses on read requests
system.cpu0.dtb.wrAccesses                    7342742                       # TLB accesses on write requests
system.cpu0.dtb.rdMisses                       128878                       # TLB misses on read requests
system.cpu0.dtb.wrMisses                        43905                       # TLB misses on write requests
system.cpu0.apic_clk_domain.clock                8000                       # Clock period in ticks
system.cpu0.interrupts.pwrStateResidencyTicks::UNDEFINED  15267344125                       # Cumulative time (in ticks) in various power states
system.cpu0.itb.walker.pwrStateResidencyTicks::UNDEFINED  15267344125                       # Cumulative time (in ticks) in various power states
system.cpu0.itb.rdAccesses                          0                       # TLB accesses on read requests
system.cpu0.itb.wrAccesses                    8738485                       # TLB accesses on write requests
system.cpu0.itb.rdMisses                            0                       # TLB misses on read requests
system.cpu0.itb.wrMisses                        13778                       # TLB misses on write requests
system.cpu0.workload.numSyscalls                   23                       # Number of system calls
system.cpu0.pwrStateResidencyTicks::ON    15267344125                       # Cumulative time (in ticks) in various power states
system.cpu0.numCycles                        30534688                       # number of cpu cycles simulated
system.cpu0.numWorkItemsStarted                     0                       # number of work items this cpu started
system.cpu0.numWorkItemsCompleted                   0                       # number of work items this cpu completed
system.cpu0.fetch.icacheStallCycles          10415772                       # Number of cycles fetch is stalled on an Icache miss
system.cpu0.fetch.Insts                      57837669                       # Number of instructions fetch has processed
system.cpu0.fetch.Branches                   12835435                       # Number of branches that fetch encountered
system.cpu0.fetch.predictedBranches           4505450                       # Number of branches that fetch has predicted taken
system.cpu0.fetch.Cycles                     18944310                       # Number of cycles fetch has run and was not squashing or blocked
system.cpu0.fetch.SquashCycles                2124860                       # Number of cycles fetch has spent squashing
system.cpu0.fetch.MiscStallCycles                7581                       # Number of cycles fetch has spent waiting on interrupts, or bad addresses, or out of MSHRs
system.cpu0.fetch.PendingTrapStallCycles        61418                       # Number of stall cycles due to pending traps
system.cpu0.fetch.CacheLines                  8724707                       # Number of cache lines fetched
system.cpu0.fetch.IcacheSquashes               286550                       # Number of outstanding Icache misses that were squashed
system.cpu0.fetch.rateDist::samples          30491511                       # Number of instructions fetched each cycle (Total)
system.cpu0.fetch.rateDist::mean             3.627033                       # Number of instructions fetched each cycle (Total)
system.cpu0.fetch.rateDist::stdev            3.578465                       # Number of instructions fetched each cycle (Total)
system.cpu0.fetch.rateDist::underflows              0      0.00%      0.00% # Number of instructions fetched each cycle (Total)
system.cpu0.fetch.rateDist::0                12841789     42.12%     42.12% # Number of instructions fetched each cycle (Total)
system.cpu0.fetch.rateDist::1                  837505      2.75%     44.86% # Number of instructions fetched each cycle (Total)
system.cpu0.fetch.rateDist::2                 1219776      4.00%     48.86% # Number of instructions fetched each cycle (Total)
system.cpu0.fetch.rateDist::3                 1383961      4.54%     53.40% # Number of instructions fetched each cycle (Total)
system.cpu0.fetch.rateDist::4                 1088928      3.57%     56.97% # Number of instructions fetched each cycle (Total)
system.cpu0.fetch.rateDist::5                 1088436      3.57%     60.54% # Number of instructions fetched each cycle (Total)
system.cpu0.fetch.rateDist::6                 1008381      3.31%     63.85% # Number of instructions fetched each cycle (Total)
system.cpu0.fetch.rateDist::7                  865295      2.84%     66.69% # Number of instructions fetched each cycle (Total)
system.cpu0.fetch.rateDist::8                10157440     33.31%    100.00% # Number of instructions fetched each cycle (Total)
system.cpu0.fetch.rateDist::overflows               0      0.00%    100.00% # Number of instructions fetched each cycle (Total)
system.cpu0.fetch.rateDist::min_value               0                       # Number of instructions fetched each cycle (Total)
system.cpu0.fetch.rateDist::max_value               8                       # Number of instructions fetched each cycle (Total)
system.cpu0.fetch.rateDist::total            30491511                       # Number of instructions fetched each cycle (Total)
system.cpu0.fetch.branchRate                 0.420356                       # Number of branch fetches per cycle
system.cpu0.fetch.rate                       1.894163                       # Number of inst fetches per cycle
system.cpu0.decode.IdleCycles                 9327956                       # Number of cycles decode is idle
system.cpu0.decode.BlockedCycles              3953773                       # Number of cycles decode is blocked
system.cpu0.decode.RunCycles                 15236089                       # Number of cycles decode is running
system.cpu0.decode.UnblockCycles               911263                       # Number of cycles decode is unblocking
system.cpu0.decode.SquashCycles               1062430                       # Number of cycles decode is squashing
system.cpu0.decode.DecodedInsts             105419748                       # Number of instructions handled by decode
system.cpu0.rename.SquashCycles               1062430                       # Number of cycles rename is squashing
system.cpu0.rename.IdleCycles                10058798                       # Number of cycles rename is idle
system.cpu0.rename.BlockCycles                3119559                       # Number of cycles rename is blocking
system.cpu0.rename.serializeStallCycles         17045                       # count of cycles rename stalled for serializing inst
system.cpu0.rename.RunCycles                 15354383                       # Number of cycles rename is running
system.cpu0.rename.UnblockCycles               879296                       # Number of cycles rename is unblocking
system.cpu0.rename.RenamedInsts             100631547                       # Number of instructions processed by rename
system.cpu0.rename.ROBFullEvents                  663                       # Number of times rename has blocked due to ROB full
system.cpu0.rename.IQFullEvents                 74516                       # Number of times rename has blocked due to IQ full
system.cpu0.rename.LQFullEvents                    56                       # Number of times rename has blocked due to LQ full
system.cpu0.rename.SQFullEvents                749582                       # Number of times rename has blocked due to SQ full
system.cpu0.rename.RenamedOperands          106986414                       # Number of destination operands rename has renamed
system.cpu0.rename.RenameLookups            253457969                       # Number of register rename lookups that rename has made
system.cpu0.rename.int_rename_lookups       151228792                       # Number of integer rename lookups
system.cpu0.rename.fp_rename_lookups          3079737                       # Number of floating rename lookups
system.cpu0.rename.CommittedMaps             67160072                       # Number of HB maps that are committed
system.cpu0.rename.UndoneMaps                39826270                       # Number of HB maps that are undone due to squashing
system.cpu0.rename.serializingInsts               547                       # count of serializing insts renamed
system.cpu0.rename.tempSerializingInsts           684                       # count of temporary serializing insts renamed
system.cpu0.rename.skidInsts                   904889                       # count of insts added to the skid buffer
system.cpu0.memDep0.insertedLoads            11546326                       # Number of loads inserted to the mem dependence unit.
system.cpu0.memDep0.insertedStores            8690984                       # Number of stores inserted to the mem dependence unit.
system.cpu0.memDep0.conflictingLoads           485797                       # Number of conflicting loads.
system.cpu0.memDep0.conflictingStores          189127                       # Number of conflicting stores.
system.cpu0.iq.iqInstsAdded                  90818832                       # Number of instructions added to the IQ (excludes non-spec)
system.cpu0.iq.iqNonSpecInstsAdded              59199                       # Number of non-speculative instructions added to the IQ
system.cpu0.iq.iqInstsIssued                 81218295                       # Number of instructions issued
system.cpu0.iq.iqSquashedInstsIssued           417326                       # Number of squashed instructions issued
system.cpu0.iq.iqSquashedInstsExamined       28011115                       # Number of squashed instructions iterated over during squash; mainly for profiling
system.cpu0.iq.iqSquashedOperandsExamined     40512301                       # Number of squashed operands that are examined and possibly removed from graph
system.cpu0.iq.iqSquashedNonSpecRemoved         59176                       # Number of squashed non-spec instructions that were removed
system.cpu0.iq.issued_per_cycle::samples     30491511                       # Number of insts issued each cycle
system.cpu0.iq.issued_per_cycle::mean        2.663636                       # Number of insts issued each cycle
system.cpu0.iq.issued_per_cycle::stdev       2.510686                       # Number of insts issued each cycle
system.cpu0.iq.issued_per_cycle::underflows            0      0.00%      0.00% # Number of insts issued each cycle
system.cpu0.iq.issued_per_cycle::0           10049163     32.96%     32.96% # Number of insts issued each cycle
system.cpu0.iq.issued_per_cycle::1            2872287      9.42%     42.38% # Number of insts issued each cycle
system.cpu0.iq.issued_per_cycle::2            3105874     10.19%     52.56% # Number of insts issued each cycle
system.cpu0.iq.issued_per_cycle::3            3102656     10.18%     62.74% # Number of insts issued each cycle
system.cpu0.iq.issued_per_cycle::4            3063604     10.05%     72.79% # Number of insts issued each cycle
system.cpu0.iq.issued_per_cycle::5            2725538      8.94%     81.72% # Number of insts issued each cycle
system.cpu0.iq.issued_per_cycle::6            3027897      9.93%     91.66% # Number of insts issued each cycle
system.cpu0.iq.issued_per_cycle::7            1579132      5.18%     96.83% # Number of insts issued each cycle
system.cpu0.iq.issued_per_cycle::8             965360      3.17%    100.00% # Number of insts issued each cycle
system.cpu0.iq.issued_per_cycle::overflows            0      0.00%    100.00% # Number of insts issued each cycle
system.cpu0.iq.issued_per_cycle::min_value            0                       # Number of insts issued each cycle
system.cpu0.iq.issued_per_cycle::max_value            8                       # Number of insts issued each cycle
system.cpu0.iq.issued_per_cycle::total       30491511                       # Number of insts issued each cycle
system.cpu0.iq.fu_full::No_OpClass                  0      0.00%      0.00% # attempts to use FU when none available
system.cpu0.iq.fu_full::IntAlu                 754710     72.77%     72.77% # attempts to use FU when none available
system.cpu0.iq.fu_full::IntMult                     0      0.00%     72.77% # attempts to use FU when none available
system.cpu0.iq.fu_full::IntDiv                      0      0.00%     72.77% # attempts to use FU when none available
system.cpu0.iq.fu_full::FloatAdd                14317      1.38%     74.15% # attempts to use FU when none available
system.cpu0.iq.fu_full::FloatCmp                    0      0.00%     74.15% # attempts to use FU when none available
system.cpu0.iq.fu_full::FloatCvt                    0      0.00%     74.15% # attempts to use FU when none available
system.cpu0.iq.fu_full::FloatMult                   0      0.00%     74.15% # attempts to use FU when none available
system.cpu0.iq.fu_full::FloatMultAcc                0      0.00%     74.15% # attempts to use FU when none available
system.cpu0.iq.fu_full::FloatDiv                    0      0.00%     74.15% # attempts to use FU when none available
system.cpu0.iq.fu_full::FloatMisc                   0      0.00%     74.15% # attempts to use FU when none available
system.cpu0.iq.fu_full::FloatSqrt                   0      0.00%     74.15% # attempts to use FU when none available
system.cpu0.iq.fu_full::SimdAdd                     0      0.00%     74.15% # attempts to use FU when none available
system.cpu0.iq.fu_full::SimdAddAcc                  0      0.00%     74.15% # attempts to use FU when none available
system.cpu0.iq.fu_full::SimdAlu                     0      0.00%     74.15% # attempts to use FU when none available
system.cpu0.iq.fu_full::SimdCmp                     0      0.00%     74.15% # attempts to use FU when none available
system.cpu0.iq.fu_full::SimdCvt                     0      0.00%     74.15% # attempts to use FU when none available
system.cpu0.iq.fu_full::SimdMisc                    0      0.00%     74.15% # attempts to use FU when none available
system.cpu0.iq.fu_full::SimdMult                    0      0.00%     74.15% # attempts to use FU when none available
system.cpu0.iq.fu_full::SimdMultAcc                 0      0.00%     74.15% # attempts to use FU when none available
system.cpu0.iq.fu_full::SimdShift                   0      0.00%     74.15% # attempts to use FU when none available
system.cpu0.iq.fu_full::SimdShiftAcc                0      0.00%     74.15% # attempts to use FU when none available
system.cpu0.iq.fu_full::SimdSqrt                    0      0.00%     74.15% # attempts to use FU when none available
system.cpu0.iq.fu_full::SimdFloatAdd                0      0.00%     74.15% # attempts to use FU when none available
system.cpu0.iq.fu_full::SimdFloatAlu                0      0.00%     74.15% # attempts to use FU when none available
system.cpu0.iq.fu_full::SimdFloatCmp                0      0.00%     74.15% # attempts to use FU when none available
system.cpu0.iq.fu_full::SimdFloatCvt                0      0.00%     74.15% # attempts to use FU when none available
system.cpu0.iq.fu_full::SimdFloatDiv                0      0.00%     74.15% # attempts to use FU when none available
system.cpu0.iq.fu_full::SimdFloatMisc               0      0.00%     74.15% # attempts to use FU when none available
system.cpu0.iq.fu_full::SimdFloatMult               0      0.00%     74.15% # attempts to use FU when none available
system.cpu0.iq.fu_full::SimdFloatMultAcc            0      0.00%     74.15% # attempts to use FU when none available
system.cpu0.iq.fu_full::SimdFloatSqrt               0      0.00%     74.15% # attempts to use FU when none available
system.cpu0.iq.fu_full::MemRead                 94092      9.07%     83.22% # attempts to use FU when none available
system.cpu0.iq.fu_full::MemWrite                86810      8.37%     91.59% # attempts to use FU when none available
system.cpu0.iq.fu_full::FloatMemRead              566      0.05%     91.64% # attempts to use FU when none available
system.cpu0.iq.fu_full::FloatMemWrite           86681      8.36%    100.00% # attempts to use FU when none available
system.cpu0.iq.fu_full::IprAccess                   0      0.00%    100.00% # attempts to use FU when none available
system.cpu0.iq.fu_full::InstPrefetch                0      0.00%    100.00% # attempts to use FU when none available
system.cpu0.iq.FU_type_0::No_OpClass           493794      0.61%      0.61% # Type of FU issued
system.cpu0.iq.FU_type_0::IntAlu             61521590     75.75%     76.36% # Type of FU issued
system.cpu0.iq.FU_type_0::IntMult               73331      0.09%     76.45% # Type of FU issued
system.cpu0.iq.FU_type_0::IntDiv                83868      0.10%     76.55% # Type of FU issued
system.cpu0.iq.FU_type_0::FloatAdd            1137217      1.40%     77.95% # Type of FU issued
system.cpu0.iq.FU_type_0::FloatCmp                  0      0.00%     77.95% # Type of FU issued
system.cpu0.iq.FU_type_0::FloatCvt                  0      0.00%     77.95% # Type of FU issued
system.cpu0.iq.FU_type_0::FloatMult                 0      0.00%     77.95% # Type of FU issued
system.cpu0.iq.FU_type_0::FloatMultAcc              0      0.00%     77.95% # Type of FU issued
system.cpu0.iq.FU_type_0::FloatDiv                  0      0.00%     77.95% # Type of FU issued
system.cpu0.iq.FU_type_0::FloatMisc                 0      0.00%     77.95% # Type of FU issued
system.cpu0.iq.FU_type_0::FloatSqrt                 0      0.00%     77.95% # Type of FU issued
system.cpu0.iq.FU_type_0::SimdAdd                   0      0.00%     77.95% # Type of FU issued
system.cpu0.iq.FU_type_0::SimdAddAcc                0      0.00%     77.95% # Type of FU issued
system.cpu0.iq.FU_type_0::SimdAlu                   0      0.00%     77.95% # Type of FU issued
system.cpu0.iq.FU_type_0::SimdCmp                   0      0.00%     77.95% # Type of FU issued
system.cpu0.iq.FU_type_0::SimdCvt                   0      0.00%     77.95% # Type of FU issued
system.cpu0.iq.FU_type_0::SimdMisc                  0      0.00%     77.95% # Type of FU issued
system.cpu0.iq.FU_type_0::SimdMult                  0      0.00%     77.95% # Type of FU issued
system.cpu0.iq.FU_type_0::SimdMultAcc               0      0.00%     77.95% # Type of FU issued
system.cpu0.iq.FU_type_0::SimdShift                 0      0.00%     77.95% # Type of FU issued
system.cpu0.iq.FU_type_0::SimdShiftAcc              0      0.00%     77.95% # Type of FU issued
system.cpu0.iq.FU_type_0::SimdSqrt                  0      0.00%     77.95% # Type of FU issued
system.cpu0.iq.FU_type_0::SimdFloatAdd              0      0.00%     77.95% # Type of FU issued
system.cpu0.iq.FU_type_0::SimdFloatAlu              0      0.00%     77.95% # Type of FU issued
system.cpu0.iq.FU_type_0::SimdFloatCmp              0      0.00%     77.95% # Type of FU issued
system.cpu0.iq.FU_type_0::SimdFloatCvt              0      0.00%     77.95% # Type of FU issued
system.cpu0.iq.FU_type_0::SimdFloatDiv              0      0.00%     77.95% # Type of FU issued
system.cpu0.iq.FU_type_0::SimdFloatMisc             0      0.00%     77.95% # Type of FU issued
system.cpu0.iq.FU_type_0::SimdFloatMult             0      0.00%     77.95% # Type of FU issued
system.cpu0.iq.FU_type_0::SimdFloatMultAcc            0      0.00%     77.95% # Type of FU issued
system.cpu0.iq.FU_type_0::SimdFloatSqrt             0      0.00%     77.95% # Type of FU issued
system.cpu0.iq.FU_type_0::MemRead             9856544     12.14%     90.09% # Type of FU issued
system.cpu0.iq.FU_type_0::MemWrite            7390271      9.10%     99.19% # Type of FU issued
system.cpu0.iq.FU_type_0::FloatMemRead         384898      0.47%     99.66% # Type of FU issued
system.cpu0.iq.FU_type_0::FloatMemWrite        276782      0.34%    100.00% # Type of FU issued
system.cpu0.iq.FU_type_0::IprAccess                 0      0.00%    100.00% # Type of FU issued
system.cpu0.iq.FU_type_0::InstPrefetch              0      0.00%    100.00% # Type of FU issued
system.cpu0.iq.FU_type_0::total              81218295                       # Type of FU issued
system.cpu0.iq.rate                          2.659870                       # Inst issue rate
system.cpu0.iq.fu_busy_cnt                    1037176                       # FU busy when requested
system.cpu0.iq.fu_busy_rate                  0.012770                       # FU busy rate (busy events/executed inst)
system.cpu0.iq.int_inst_queue_reads         190530719                       # Number of integer instruction queue reads
system.cpu0.iq.int_inst_queue_writes        115878237                       # Number of integer instruction queue writes
system.cpu0.iq.int_inst_queue_wakeup_accesses     75898915                       # Number of integer instruction queue wakeup accesses
system.cpu0.iq.fp_inst_queue_reads            3851883                       # Number of floating instruction queue reads
system.cpu0.iq.fp_inst_queue_writes           3011983                       # Number of floating instruction queue writes
system.cpu0.iq.fp_inst_queue_wakeup_accesses      1741265                       # Number of floating instruction queue wakeup accesses
system.cpu0.iq.vec_inst_queue_reads                 0                       # Number of vector instruction queue reads
system.cpu0.iq.vec_inst_queue_writes                0                       # Number of vector instruction queue writes
system.cpu0.iq.vec_inst_queue_wakeup_accesses            0                       # Number of vector instruction queue wakeup accesses
system.cpu0.iq.int_alu_accesses              79818555                       # Number of integer alu accesses
system.cpu0.iq.fp_alu_accesses                1943122                       # Number of floating point alu accesses
system.cpu0.iq.vec_alu_accesses                     0                       # Number of vector alu accesses
system.cpu0.iew.lsq.thread0.forwLoads         1181077                       # Number of loads that had data forwarded from stores
system.cpu0.iew.lsq.thread0.invAddrLoads            0                       # Number of loads ignored due to an invalid address
system.cpu0.iew.lsq.thread0.squashedLoads      4022596                       # Number of loads squashed
system.cpu0.iew.lsq.thread0.ignoredResponses         8788                       # Number of memory responses ignored because the instruction is squashed
system.cpu0.iew.lsq.thread0.memOrderViolation         2605                       # Number of memory ordering violations
system.cpu0.iew.lsq.thread0.squashedStores      2521206                       # Number of stores squashed
system.cpu0.iew.lsq.thread0.invAddrSwpfs            0                       # Number of software prefetches ignored due to an invalid address
system.cpu0.iew.lsq.thread0.blockedLoads            0                       # Number of blocked loads due to partial load-store forwarding
system.cpu0.iew.lsq.thread0.rescheduledLoads          109                       # Number of loads that were rescheduled
system.cpu0.iew.lsq.thread0.cacheBlocked            0                       # Number of times an access to memory failed due to the cache being blocked
system.cpu0.iew.iewIdleCycles                       0                       # Number of cycles IEW is idle
system.cpu0.iew.iewSquashCycles               1062430                       # Number of cycles IEW is squashing
system.cpu0.iew.iewBlockCycles                3176890                       # Number of cycles IEW is blocking
system.cpu0.iew.iewUnblockCycles                 2435                       # Number of cycles IEW is unblocking
system.cpu0.iew.iewDispatchedInsts           90878031                       # Number of instructions dispatched to IQ
system.cpu0.iew.iewDispSquashedInsts            25808                       # Number of squashed instructions skipped by dispatch
system.cpu0.iew.iewDispLoadInsts             11546326                       # Number of dispatched load instructions
system.cpu0.iew.iewDispStoreInsts             8690984                       # Number of dispatched store instructions
system.cpu0.iew.iewDispNonSpecInsts             20631                       # Number of dispatched non-speculative instructions
system.cpu0.iew.iewIQFullEvents                   671                       # Number of times the IQ has become full, causing a stall
system.cpu0.iew.iewLSQFullEvents                 1034                       # Number of times the LSQ has become full, causing a stall
system.cpu0.iew.memOrderViolationEvents          2605                       # Number of memory order violations
system.cpu0.iew.predictedTakenIncorrect        293520                       # Number of branches that were predicted taken incorrectly
system.cpu0.iew.predictedNotTakenIncorrect      1096746                       # Number of branches that were predicted not taken incorrectly
system.cpu0.iew.branchMispredicts             1390266                       # Number of branch mispredicts detected at execute
system.cpu0.iew.iewExecutedInsts             78751158                       # Number of executed instructions
system.cpu0.iew.iewExecLoadInsts              9726298                       # Number of load instructions executed
system.cpu0.iew.iewExecSquashedInsts          2467136                       # Number of squashed instructions skipped in execute
system.cpu0.iew.exec_swp                            0                       # number of swp insts executed
system.cpu0.iew.exec_nop                            0                       # number of nop insts executed
system.cpu0.iew.exec_refs                    17061948                       # number of memory reference insts executed
system.cpu0.iew.exec_branches                 8535972                       # Number of branches executed
system.cpu0.iew.exec_stores                   7335650                       # Number of stores executed
system.cpu0.iew.exec_rate                    2.579072                       # Inst execution rate
system.cpu0.iew.wb_sent                      78218742                       # cumulative count of insts sent to commit
system.cpu0.iew.wb_count                     77640180                       # cumulative count of insts written-back
system.cpu0.iew.wb_producers                 54208730                       # num instructions producing a value
system.cpu0.iew.wb_consumers                 84772717                       # num instructions consuming a value
system.cpu0.iew.wb_rate                      2.542688                       # insts written-back per cycle
system.cpu0.iew.wb_fanout                    0.639460                       # average fanout of values written-back
system.cpu0.commit.commitSquashedInsts       28011649                       # The number of squashed insts skipped by commit
system.cpu0.commit.commitNonSpecStalls             23                       # The number of times commit has been forced to stall to communicate backwards
system.cpu0.commit.branchMispredicts          1061735                       # The number of times a branch was mispredicted
system.cpu0.commit.committed_per_cycle::samples     26266692                       # Number of insts commited each cycle
system.cpu0.commit.committed_per_cycle::mean     2.393406                       # Number of insts commited each cycle
system.cpu0.commit.committed_per_cycle::stdev     2.715374                       # Number of insts commited each cycle
system.cpu0.commit.committed_per_cycle::underflows            0      0.00%      0.00% # Number of insts commited each cycle
system.cpu0.commit.committed_per_cycle::0      9679257     36.85%     36.85% # Number of insts commited each cycle
system.cpu0.commit.committed_per_cycle::1      3772609     14.36%     51.21% # Number of insts commited each cycle
system.cpu0.commit.committed_per_cycle::2      2622396      9.98%     61.20% # Number of insts commited each cycle
system.cpu0.commit.committed_per_cycle::3      3555219     13.54%     74.73% # Number of insts commited each cycle
system.cpu0.commit.committed_per_cycle::4      1124884      4.28%     79.01% # Number of insts commited each cycle
system.cpu0.commit.committed_per_cycle::5      1117195      4.25%     83.27% # Number of insts commited each cycle
system.cpu0.commit.committed_per_cycle::6       801429      3.05%     86.32% # Number of insts commited each cycle
system.cpu0.commit.committed_per_cycle::7       459911      1.75%     88.07% # Number of insts commited each cycle
system.cpu0.commit.committed_per_cycle::8      3133792     11.93%    100.00% # Number of insts commited each cycle
system.cpu0.commit.committed_per_cycle::overflows            0      0.00%    100.00% # Number of insts commited each cycle
system.cpu0.commit.committed_per_cycle::min_value            0                       # Number of insts commited each cycle
system.cpu0.commit.committed_per_cycle::max_value            8                       # Number of insts commited each cycle
system.cpu0.commit.committed_per_cycle::total     26266692                       # Number of insts commited each cycle
system.cpu0.commit.committedInsts            33188947                       # Number of instructions committed
system.cpu0.commit.committedOps              62866856                       # Number of ops (including micro ops) committed
system.cpu0.commit.swp_count                        0                       # Number of s/w prefetches committed
system.cpu0.commit.refs                      13693492                       # Number of memory references committed
system.cpu0.commit.loads                      7523719                       # Number of loads committed
system.cpu0.commit.membars                          0                       # Number of memory barriers committed
system.cpu0.commit.branches                   7312732                       # Number of branches committed
system.cpu0.commit.vec_insts                        0                       # Number of committed Vector instructions.
system.cpu0.commit.fp_insts                   1282093                       # Number of committed floating point instructions.
system.cpu0.commit.int_insts                 61903790                       # Number of committed integer instructions.
system.cpu0.commit.function_calls              455310                       # Number of function calls committed.
system.cpu0.commit.op_class_0::No_OpClass       255326      0.41%      0.41% # Class of committed instruction
system.cpu0.commit.op_class_0::IntAlu        47821519     76.07%     76.47% # Class of committed instruction
system.cpu0.commit.op_class_0::IntMult          53412      0.08%     76.56% # Class of committed instruction
system.cpu0.commit.op_class_0::IntDiv           74627      0.12%     76.68% # Class of committed instruction
system.cpu0.commit.op_class_0::FloatAdd        968480      1.54%     78.22% # Class of committed instruction
system.cpu0.commit.op_class_0::FloatCmp             0      0.00%     78.22% # Class of committed instruction
system.cpu0.commit.op_class_0::FloatCvt             0      0.00%     78.22% # Class of committed instruction
system.cpu0.commit.op_class_0::FloatMult            0      0.00%     78.22% # Class of committed instruction
system.cpu0.commit.op_class_0::FloatMultAcc            0      0.00%     78.22% # Class of committed instruction
system.cpu0.commit.op_class_0::FloatDiv             0      0.00%     78.22% # Class of committed instruction
system.cpu0.commit.op_class_0::FloatMisc            0      0.00%     78.22% # Class of committed instruction
system.cpu0.commit.op_class_0::FloatSqrt            0      0.00%     78.22% # Class of committed instruction
system.cpu0.commit.op_class_0::SimdAdd              0      0.00%     78.22% # Class of committed instruction
system.cpu0.commit.op_class_0::SimdAddAcc            0      0.00%     78.22% # Class of committed instruction
system.cpu0.commit.op_class_0::SimdAlu              0      0.00%     78.22% # Class of committed instruction
system.cpu0.commit.op_class_0::SimdCmp              0      0.00%     78.22% # Class of committed instruction
system.cpu0.commit.op_class_0::SimdCvt              0      0.00%     78.22% # Class of committed instruction
system.cpu0.commit.op_class_0::SimdMisc             0      0.00%     78.22% # Class of committed instruction
system.cpu0.commit.op_class_0::SimdMult             0      0.00%     78.22% # Class of committed instruction
system.cpu0.commit.op_class_0::SimdMultAcc            0      0.00%     78.22% # Class of committed instruction
system.cpu0.commit.op_class_0::SimdShift            0      0.00%     78.22% # Class of committed instruction
system.cpu0.commit.op_class_0::SimdShiftAcc            0      0.00%     78.22% # Class of committed instruction
system.cpu0.commit.op_class_0::SimdSqrt             0      0.00%     78.22% # Class of committed instruction
system.cpu0.commit.op_class_0::SimdFloatAdd            0      0.00%     78.22% # Class of committed instruction
system.cpu0.commit.op_class_0::SimdFloatAlu            0      0.00%     78.22% # Class of committed instruction
system.cpu0.commit.op_class_0::SimdFloatCmp            0      0.00%     78.22% # Class of committed instruction
system.cpu0.commit.op_class_0::SimdFloatCvt            0      0.00%     78.22% # Class of committed instruction
system.cpu0.commit.op_class_0::SimdFloatDiv            0      0.00%     78.22% # Class of committed instruction
system.cpu0.commit.op_class_0::SimdFloatMisc            0      0.00%     78.22% # Class of committed instruction
system.cpu0.commit.op_class_0::SimdFloatMult            0      0.00%     78.22% # Class of committed instruction
system.cpu0.commit.op_class_0::SimdFloatMultAcc            0      0.00%     78.22% # Class of committed instruction
system.cpu0.commit.op_class_0::SimdFloatSqrt            0      0.00%     78.22% # Class of committed instruction
system.cpu0.commit.op_class_0::MemRead        7252767     11.54%     89.75% # Class of committed instruction
system.cpu0.commit.op_class_0::MemWrite       6169773      9.81%     99.57% # Class of committed instruction
system.cpu0.commit.op_class_0::FloatMemRead       270952      0.43%    100.00% # Class of committed instruction
system.cpu0.commit.op_class_0::FloatMemWrite            0      0.00%    100.00% # Class of committed instruction
system.cpu0.commit.op_class_0::IprAccess            0      0.00%    100.00% # Class of committed instruction
system.cpu0.commit.op_class_0::InstPrefetch            0      0.00%    100.00% # Class of committed instruction
system.cpu0.commit.op_class_0::total         62866856                       # Class of committed instruction
system.cpu0.commit.bw_lim_events              3133792                       # number cycles where commit BW limit reached
system.cpu0.rob.rob_reads                   114011405                       # The number of ROB reads
system.cpu0.rob.rob_writes                  186065291                       # The number of ROB writes
system.cpu0.timesIdled                          13255                       # Number of times that the entire CPU went into an idle state and unscheduled itself
system.cpu0.idleCycles                          43177                       # Total number of cycles that the CPU has spent unscheduled due to idling
system.cpu0.committedInsts                   33188947                       # Number of Instructions Simulated
system.cpu0.committedOps                     62866856                       # Number of Ops (including micro ops) Simulated
system.cpu0.cpi                              0.920026                       # CPI: Cycles Per Instruction
system.cpu0.cpi_total                        0.920026                       # CPI: Total CPI of All Threads
system.cpu0.ipc                              1.086926                       # IPC: Instructions Per Cycle
system.cpu0.ipc_total                        1.086926                       # IPC: Total IPC of All Threads
system.cpu0.int_regfile_reads               113948930                       # number of integer regfile reads
system.cpu0.int_regfile_writes               60812760                       # number of integer regfile writes
system.cpu0.fp_regfile_reads                  2453473                       # number of floating regfile reads
system.cpu0.fp_regfile_writes                 1209581                       # number of floating regfile writes
system.cpu0.cc_regfile_reads                 39710347                       # number of cc regfile reads
system.cpu0.cc_regfile_writes                20785990                       # number of cc regfile writes
system.cpu0.misc_regfile_reads               34622023                       # number of misc regfile reads
system.cpu0.dcache.tags.pwrStateResidencyTicks::UNDEFINED  15267344125                       # Cumulative time (in ticks) in various power states
system.cpu0.dcache.tags.replacements            11668                       # number of replacements
system.cpu0.dcache.tags.tagsinuse                 512                       # Cycle average of tags in use
system.cpu0.dcache.tags.total_refs           20060521                       # Total number of references to valid blocks.
system.cpu0.dcache.tags.sampled_refs            11668                       # Sample count of references to valid blocks.
system.cpu0.dcache.tags.avg_refs          1719.276740                       # Average number of references to valid blocks.
system.cpu0.dcache.tags.warmup_cycle                0                       # Cycle when the warmup percentage was hit.
system.cpu0.dcache.tags.occ_blocks::cpu0.data          512                       # Average occupied blocks per requestor
system.cpu0.dcache.tags.occ_percent::cpu0.data            1                       # Average percentage of cache occupancy
system.cpu0.dcache.tags.occ_percent::total            1                       # Average percentage of cache occupancy
system.cpu0.dcache.tags.occ_task_id_blocks::1024          512                       # Occupied blocks per task id
system.cpu0.dcache.tags.age_task_id_blocks_1024::0            6                       # Occupied blocks per task id
system.cpu0.dcache.tags.age_task_id_blocks_1024::1           42                       # Occupied blocks per task id
system.cpu0.dcache.tags.age_task_id_blocks_1024::2          277                       # Occupied blocks per task id
system.cpu0.dcache.tags.age_task_id_blocks_1024::3           93                       # Occupied blocks per task id
system.cpu0.dcache.tags.age_task_id_blocks_1024::4           94                       # Occupied blocks per task id
system.cpu0.dcache.tags.occ_task_id_percent::1024            1                       # Percentage of cache occupancy per task id
system.cpu0.dcache.tags.tag_accesses         58394720                       # Number of tag accesses
system.cpu0.dcache.tags.data_accesses        58394720                       # Number of data accesses
system.cpu0.dcache.pwrStateResidencyTicks::UNDEFINED  15267344125                       # Cumulative time (in ticks) in various power states
system.cpu0.dcache.ReadReq_hits::cpu0.data      8403987                       # number of ReadReq hits
system.cpu0.dcache.ReadReq_hits::total        8403987                       # number of ReadReq hits
system.cpu0.dcache.WriteReq_hits::cpu0.data      6169401                       # number of WriteReq hits
system.cpu0.dcache.WriteReq_hits::total       6169401                       # number of WriteReq hits
system.cpu0.dcache.demand_hits::cpu0.data     14573388                       # number of demand (read+write) hits
system.cpu0.dcache.demand_hits::total        14573388                       # number of demand (read+write) hits
system.cpu0.dcache.overall_hits::cpu0.data     14573388                       # number of overall hits
system.cpu0.dcache.overall_hits::total       14573388                       # number of overall hits
system.cpu0.dcache.ReadReq_misses::cpu0.data        18893                       # number of ReadReq misses
system.cpu0.dcache.ReadReq_misses::total        18893                       # number of ReadReq misses
system.cpu0.dcache.WriteReq_misses::cpu0.data         3482                       # number of WriteReq misses
system.cpu0.dcache.WriteReq_misses::total         3482                       # number of WriteReq misses
system.cpu0.dcache.demand_misses::cpu0.data        22375                       # number of demand (read+write) misses
system.cpu0.dcache.demand_misses::total         22375                       # number of demand (read+write) misses
system.cpu0.dcache.overall_misses::cpu0.data        22375                       # number of overall misses
system.cpu0.dcache.overall_misses::total        22375                       # number of overall misses
system.cpu0.dcache.ReadReq_miss_latency::cpu0.data    244248500                       # number of ReadReq miss cycles
system.cpu0.dcache.ReadReq_miss_latency::total    244248500                       # number of ReadReq miss cycles
system.cpu0.dcache.WriteReq_miss_latency::cpu0.data    500790000                       # number of WriteReq miss cycles
system.cpu0.dcache.WriteReq_miss_latency::total    500790000                       # number of WriteReq miss cycles
system.cpu0.dcache.demand_miss_latency::cpu0.data    745038500                       # number of demand (read+write) miss cycles
system.cpu0.dcache.demand_miss_latency::total    745038500                       # number of demand (read+write) miss cycles
system.cpu0.dcache.overall_miss_latency::cpu0.data    745038500                       # number of overall miss cycles
system.cpu0.dcache.overall_miss_latency::total    745038500                       # number of overall miss cycles
system.cpu0.dcache.ReadReq_accesses::cpu0.data      8422880                       # number of ReadReq accesses(hits+misses)
system.cpu0.dcache.ReadReq_accesses::total      8422880                       # number of ReadReq accesses(hits+misses)
system.cpu0.dcache.WriteReq_accesses::cpu0.data      6172883                       # number of WriteReq accesses(hits+misses)
system.cpu0.dcache.WriteReq_accesses::total      6172883                       # number of WriteReq accesses(hits+misses)
system.cpu0.dcache.demand_accesses::cpu0.data     14595763                       # number of demand (read+write) accesses
system.cpu0.dcache.demand_accesses::total     14595763                       # number of demand (read+write) accesses
system.cpu0.dcache.overall_accesses::cpu0.data     14595763                       # number of overall (read+write) accesses
system.cpu0.dcache.overall_accesses::total     14595763                       # number of overall (read+write) accesses
system.cpu0.dcache.ReadReq_miss_rate::cpu0.data     0.002243                       # miss rate for ReadReq accesses
system.cpu0.dcache.ReadReq_miss_rate::total     0.002243                       # miss rate for ReadReq accesses
system.cpu0.dcache.WriteReq_miss_rate::cpu0.data     0.000564                       # miss rate for WriteReq accesses
system.cpu0.dcache.WriteReq_miss_rate::total     0.000564                       # miss rate for WriteReq accesses
system.cpu0.dcache.demand_miss_rate::cpu0.data     0.001533                       # miss rate for demand accesses
system.cpu0.dcache.demand_miss_rate::total     0.001533                       # miss rate for demand accesses
system.cpu0.dcache.overall_miss_rate::cpu0.data     0.001533                       # miss rate for overall accesses
system.cpu0.dcache.overall_miss_rate::total     0.001533                       # miss rate for overall accesses
system.cpu0.dcache.ReadReq_avg_miss_latency::cpu0.data 12927.989202                       # average ReadReq miss latency
system.cpu0.dcache.ReadReq_avg_miss_latency::total 12927.989202                       # average ReadReq miss latency
system.cpu0.dcache.WriteReq_avg_miss_latency::cpu0.data 143822.515796                       # average WriteReq miss latency
system.cpu0.dcache.WriteReq_avg_miss_latency::total 143822.515796                       # average WriteReq miss latency
system.cpu0.dcache.demand_avg_miss_latency::cpu0.data 33297.810056                       # average overall miss latency
system.cpu0.dcache.demand_avg_miss_latency::total 33297.810056                       # average overall miss latency
system.cpu0.dcache.overall_avg_miss_latency::cpu0.data 33297.810056                       # average overall miss latency
system.cpu0.dcache.overall_avg_miss_latency::total 33297.810056                       # average overall miss latency
system.cpu0.dcache.blocked_cycles::no_mshrs            0                       # number of cycles access was blocked
system.cpu0.dcache.blocked_cycles::no_targets            0                       # number of cycles access was blocked
system.cpu0.dcache.blocked::no_mshrs                0                       # number of cycles access was blocked
system.cpu0.dcache.blocked::no_targets              0                       # number of cycles access was blocked
system.cpu0.dcache.avg_blocked_cycles::no_mshrs          nan                       # average number of cycles each access was blocked
system.cpu0.dcache.avg_blocked_cycles::no_targets          nan                       # average number of cycles each access was blocked
system.cpu0.dcache.writebacks::writebacks         8339                       # number of writebacks
system.cpu0.dcache.writebacks::total             8339                       # number of writebacks
system.cpu0.dcache.ReadReq_mshr_hits::cpu0.data        10681                       # number of ReadReq MSHR hits
system.cpu0.dcache.ReadReq_mshr_hits::total        10681                       # number of ReadReq MSHR hits
system.cpu0.dcache.WriteReq_mshr_hits::cpu0.data           23                       # number of WriteReq MSHR hits
system.cpu0.dcache.WriteReq_mshr_hits::total           23                       # number of WriteReq MSHR hits
system.cpu0.dcache.demand_mshr_hits::cpu0.data        10704                       # number of demand (read+write) MSHR hits
system.cpu0.dcache.demand_mshr_hits::total        10704                       # number of demand (read+write) MSHR hits
system.cpu0.dcache.overall_mshr_hits::cpu0.data        10704                       # number of overall MSHR hits
system.cpu0.dcache.overall_mshr_hits::total        10704                       # number of overall MSHR hits
system.cpu0.dcache.ReadReq_mshr_misses::cpu0.data         8212                       # number of ReadReq MSHR misses
system.cpu0.dcache.ReadReq_mshr_misses::total         8212                       # number of ReadReq MSHR misses
system.cpu0.dcache.WriteReq_mshr_misses::cpu0.data         3459                       # number of WriteReq MSHR misses
system.cpu0.dcache.WriteReq_mshr_misses::total         3459                       # number of WriteReq MSHR misses
system.cpu0.dcache.demand_mshr_misses::cpu0.data        11671                       # number of demand (read+write) MSHR misses
system.cpu0.dcache.demand_mshr_misses::total        11671                       # number of demand (read+write) MSHR misses
system.cpu0.dcache.overall_mshr_misses::cpu0.data        11671                       # number of overall MSHR misses
system.cpu0.dcache.overall_mshr_misses::total        11671                       # number of overall MSHR misses
system.cpu0.dcache.ReadReq_mshr_miss_latency::cpu0.data    101604500                       # number of ReadReq MSHR miss cycles
system.cpu0.dcache.ReadReq_mshr_miss_latency::total    101604500                       # number of ReadReq MSHR miss cycles
system.cpu0.dcache.WriteReq_mshr_miss_latency::cpu0.data    494715000                       # number of WriteReq MSHR miss cycles
system.cpu0.dcache.WriteReq_mshr_miss_latency::total    494715000                       # number of WriteReq MSHR miss cycles
system.cpu0.dcache.demand_mshr_miss_latency::cpu0.data    596319500                       # number of demand (read+write) MSHR miss cycles
system.cpu0.dcache.demand_mshr_miss_latency::total    596319500                       # number of demand (read+write) MSHR miss cycles
system.cpu0.dcache.overall_mshr_miss_latency::cpu0.data    596319500                       # number of overall MSHR miss cycles
system.cpu0.dcache.overall_mshr_miss_latency::total    596319500                       # number of overall MSHR miss cycles
system.cpu0.dcache.ReadReq_mshr_miss_rate::cpu0.data     0.000975                       # mshr miss rate for ReadReq accesses
system.cpu0.dcache.ReadReq_mshr_miss_rate::total     0.000975                       # mshr miss rate for ReadReq accesses
system.cpu0.dcache.WriteReq_mshr_miss_rate::cpu0.data     0.000560                       # mshr miss rate for WriteReq accesses
[...]
system.l2.WritebackDirty_accesses::writebacks         8339                       # number of WritebackDirty accesses(hits+misses)
system.l2.WritebackDirty_accesses::total         8339                       # number of WritebackDirty accesses(hits+misses)
system.l2.WritebackClean_accesses::writebacks        65533                       # number of WritebackClean accesses(hits+misses)
system.l2.WritebackClean_accesses::total        65533                       # number of WritebackClean accesses(hits+misses)
system.l2.UpgradeReq_accesses::cpu0.data            3                       # number of UpgradeReq accesses(hits+misses)
system.l2.UpgradeReq_accesses::total                3                       # number of UpgradeReq accesses(hits+misses)
system.l2.ReadExReq_accesses::cpu0.data          3456                       # number of ReadExReq accesses(hits+misses)
system.l2.ReadExReq_accesses::total              3456                       # number of ReadExReq accesses(hits+misses)
system.l2.ReadCleanReq_accesses::cpu0.inst        65532                       # number of ReadCleanReq accesses(hits+misses)
system.l2.ReadCleanReq_accesses::total          65532                       # number of ReadCleanReq accesses(hits+misses)
system.l2.ReadSharedReq_accesses::cpu0.data         8212                       # number of ReadSharedReq accesses(hits+misses)
system.l2.ReadSharedReq_accesses::total          8212                       # number of ReadSharedReq accesses(hits+misses)
system.l2.demand_accesses::cpu0.inst            65532                       # number of demand (read+write) accesses
system.l2.demand_accesses::cpu0.data            11668                       # number of demand (read+write) accesses
system.l2.demand_accesses::total                77200                       # number of demand (read+write) accesses
system.l2.overall_accesses::cpu0.inst           65532                       # number of overall (read+write) accesses
system.l2.overall_accesses::cpu0.data           11668                       # number of overall (read+write) accesses
system.l2.overall_accesses::total               77200                       # number of overall (read+write) accesses
system.l2.ReadExReq_miss_rate::cpu0.data     0.941262                       # miss rate for ReadExReq accesses
system.l2.ReadExReq_miss_rate::total         0.941262                       # miss rate for ReadExReq accesses
system.l2.ReadSharedReq_miss_rate::cpu0.data     0.003166                       # miss rate for ReadSharedReq accesses
system.l2.ReadSharedReq_miss_rate::total     0.003166                       # miss rate for ReadSharedReq accesses
system.l2.demand_miss_rate::cpu0.data        0.281025                       # miss rate for demand accesses
system.l2.demand_miss_rate::total            0.042474                       # miss rate for demand accesses
system.l2.overall_miss_rate::cpu0.data       0.281025                       # miss rate for overall accesses
system.l2.overall_miss_rate::total           0.042474                       # miss rate for overall accesses
system.l2.ReadExReq_avg_miss_latency::cpu0.data 149812.480787                       # average ReadExReq miss latency
system.l2.ReadExReq_avg_miss_latency::total 149812.480787                       # average ReadExReq miss latency
system.l2.ReadSharedReq_avg_miss_latency::cpu0.data 110423.076923                       # average ReadSharedReq miss latency
system.l2.ReadSharedReq_avg_miss_latency::total 110423.076923                       # average ReadSharedReq miss latency
system.l2.demand_avg_miss_latency::cpu0.data 149500.152486                       # average overall miss latency
system.l2.demand_avg_miss_latency::total 149500.152486                       # average overall miss latency
system.l2.overall_avg_miss_latency::cpu0.data 149500.152486                       # average overall miss latency
system.l2.overall_avg_miss_latency::total 149500.152486                       # average overall miss latency
system.l2.blocked_cycles::no_mshrs                  0                       # number of cycles access was blocked
system.l2.blocked_cycles::no_targets                0                       # number of cycles access was blocked
system.l2.blocked::no_mshrs                         0                       # number of cycles access was blocked
system.l2.blocked::no_targets                       0                       # number of cycles access was blocked
system.l2.avg_blocked_cycles::no_mshrs            nan                       # average number of cycles each access was blocked
system.l2.avg_blocked_cycles::no_targets          nan                       # average number of cycles each access was blocked
system.l2.ReadExReq_mshr_misses::cpu0.data         3253                       # number of ReadExReq MSHR misses
system.l2.ReadExReq_mshr_misses::total           3253                       # number of ReadExReq MSHR misses
system.l2.ReadSharedReq_mshr_misses::cpu0.data           26                       # number of ReadSharedReq MSHR misses
system.l2.ReadSharedReq_mshr_misses::total           26                       # number of ReadSharedReq MSHR misses
system.l2.demand_mshr_misses::cpu0.data          3279                       # number of demand (read+write) MSHR misses
system.l2.demand_mshr_misses::total              3279                       # number of demand (read+write) MSHR misses
system.l2.overall_mshr_misses::cpu0.data         3279                       # number of overall MSHR misses
system.l2.overall_mshr_misses::total             3279                       # number of overall MSHR misses
system.l2.ReadExReq_mshr_miss_latency::cpu0.data    454810000                       # number of ReadExReq MSHR miss cycles
system.l2.ReadExReq_mshr_miss_latency::total    454810000                       # number of ReadExReq MSHR miss cycles
system.l2.ReadSharedReq_mshr_miss_latency::cpu0.data      2611000                       # number of ReadSharedReq MSHR miss cycles
system.l2.ReadSharedReq_mshr_miss_latency::total      2611000                       # number of ReadSharedReq MSHR miss cycles
system.l2.demand_mshr_miss_latency::cpu0.data    457421000                       # number of demand (read+write) MSHR miss cycles
system.l2.demand_mshr_miss_latency::total    457421000                       # number of demand (read+write) MSHR miss cycles
system.l2.overall_mshr_miss_latency::cpu0.data    457421000                       # number of overall MSHR miss cycles
system.l2.overall_mshr_miss_latency::total    457421000                       # number of overall MSHR miss cycles
system.l2.ReadExReq_mshr_miss_rate::cpu0.data     0.941262                       # mshr miss rate for ReadExReq accesses
system.l2.ReadExReq_mshr_miss_rate::total     0.941262                       # mshr miss rate for ReadExReq accesses
system.l2.ReadSharedReq_mshr_miss_rate::cpu0.data     0.003166                       # mshr miss rate for ReadSharedReq accesses
system.l2.ReadSharedReq_mshr_miss_rate::total     0.003166                       # mshr miss rate for ReadSharedReq accesses
system.l2.demand_mshr_miss_rate::cpu0.data     0.281025                       # mshr miss rate for demand accesses
system.l2.demand_mshr_miss_rate::total       0.042474                       # mshr miss rate for demand accesses
system.l2.overall_mshr_miss_rate::cpu0.data     0.281025                       # mshr miss rate for overall accesses
system.l2.overall_mshr_miss_rate::total      0.042474                       # mshr miss rate for overall accesses
system.l2.ReadExReq_avg_mshr_miss_latency::cpu0.data 139812.480787                       # average ReadExReq mshr miss latency
system.l2.ReadExReq_avg_mshr_miss_latency::total 139812.480787                       # average ReadExReq mshr miss latency
system.l2.ReadSharedReq_avg_mshr_miss_latency::cpu0.data 100423.076923                       # average ReadSharedReq mshr miss latency
system.l2.ReadSharedReq_avg_mshr_miss_latency::total 100423.076923                       # average ReadSharedReq mshr miss latency
system.l2.demand_avg_mshr_miss_latency::cpu0.data 139500.152486                       # average overall mshr miss latency
system.l2.demand_avg_mshr_miss_latency::total 139500.152486                       # average overall mshr miss latency
system.l2.overall_avg_mshr_miss_latency::cpu0.data 139500.152486                       # average overall mshr miss latency
system.l2.overall_avg_mshr_miss_latency::total 139500.152486                       # average overall mshr miss latency
system.membus.snoop_filter.tot_requests          3279                       # Total number of requests made to the snoop filter.
system.membus.snoop_filter.hit_single_requests            0                       # Number of requests hitting in the snoop filter with a single holder of the requested data.
system.membus.snoop_filter.hit_multi_requests            0                       # Number of requests hitting in the snoop filter with multiple (>1) holders of the requested data.
system.membus.snoop_filter.tot_snoops               0                       # Total number of snoops made to the snoop filter.
system.membus.snoop_filter.hit_single_snoops            0                       # Number of snoops hitting in the snoop filter with a single holder of the requested data.
system.membus.snoop_filter.hit_multi_snoops            0                       # Number of snoops hitting in the snoop filter with multiple (>1) holders of the requested data.
system.membus.pwrStateResidencyTicks::UNDEFINED  15267344125                       # Cumulative time (in ticks) in various power states
system.membus.trans_dist::ReadResp                 26                       # Transaction distribution
system.membus.trans_dist::ReadExReq              3253                       # Transaction distribution
system.membus.trans_dist::ReadExResp             3253                       # Transaction distribution
system.membus.trans_dist::ReadSharedReq            26                       # Transaction distribution
system.membus.pkt_count_system.l2.mem_side::system.mem_ctrls.port         6558                       # Packet count per connected master and slave (bytes)
system.membus.pkt_count_system.l2.mem_side::total         6558                       # Packet count per connected master and slave (bytes)
system.membus.pkt_count::total                   6558                       # Packet count per connected master and slave (bytes)
system.membus.pkt_size_system.l2.mem_side::system.mem_ctrls.port       209856                       # Cumulative packet size per connected master and slave (bytes)
system.membus.pkt_size_system.l2.mem_side::total       209856                       # Cumulative packet size per connected master and slave (bytes)
system.membus.pkt_size::total                  209856                       # Cumulative packet size per connected master and slave (bytes)
system.membus.snoops                                0                       # Total snoops (count)
system.membus.snoopTraffic                          0                       # Total snoop traffic (bytes)
system.membus.snoop_fanout::samples              3279                       # Request fanout histogram
system.membus.snoop_fanout::mean                    0                       # Request fanout histogram
system.membus.snoop_fanout::stdev                   0                       # Request fanout histogram
system.membus.snoop_fanout::underflows              0      0.00%      0.00% # Request fanout histogram
system.membus.snoop_fanout::0                    3279    100.00%    100.00% # Request fanout histogram
system.membus.snoop_fanout::1                       0      0.00%    100.00% # Request fanout histogram
system.membus.snoop_fanout::overflows               0      0.00%    100.00% # Request fanout histogram
system.membus.snoop_fanout::min_value               0                       # Request fanout histogram
system.membus.snoop_fanout::max_value               0                       # Request fanout histogram
system.membus.snoop_fanout::total                3279                       # Request fanout histogram
system.membus.reqLayer12.occupancy            4108500                       # Layer occupancy (ticks)
system.membus.reqLayer12.utilization              0.0                       # Layer utilization (%)
system.membus.respLayer1.occupancy           18063250                       # Layer occupancy (ticks)
system.membus.respLayer1.utilization              0.1                       # Layer utilization (%)
system.tol2bus.snoop_filter.tot_requests       154407                       # Total number of requests made to the snoop filter.
system.tol2bus.snoop_filter.hit_single_requests        77201                       # Number of requests hitting in the snoop filter with a single holder of the requested data.
system.tol2bus.snoop_filter.hit_multi_requests           18                       # Number of requests hitting in the snoop filter with multiple (>1) holders of the requested data.
system.tol2bus.snoop_filter.tot_snoops              0                       # Total number of snoops made to the snoop filter.
system.tol2bus.snoop_filter.hit_single_snoops            0                       # Number of snoops hitting in the snoop filter with a single holder of the requested data.
system.tol2bus.snoop_filter.hit_multi_snoops            0                       # Number of snoops hitting in the snoop filter with multiple (>1) holders of the requested data.
system.tol2bus.pwrStateResidencyTicks::UNDEFINED  15267344125                       # Cumulative time (in ticks) in various power states
system.tol2bus.trans_dist::ReadResp             73748                       # Transaction distribution
system.tol2bus.trans_dist::WritebackDirty         8339                       # Transaction distribution
system.tol2bus.trans_dist::WritebackClean        65533                       # Transaction distribution
system.tol2bus.trans_dist::CleanEvict            3329                       # Transaction distribution
system.tol2bus.trans_dist::UpgradeReq               3                       # Transaction distribution
system.tol2bus.trans_dist::UpgradeResp              3                       # Transaction distribution
system.tol2bus.trans_dist::ReadExReq             3456                       # Transaction distribution
system.tol2bus.trans_dist::ReadExResp            3456                       # Transaction distribution
system.tol2bus.trans_dist::ReadCleanReq         65535                       # Transaction distribution
system.tol2bus.trans_dist::ReadSharedReq         8212                       # Transaction distribution
system.tol2bus.pkt_count_system.cpu0.icache.mem_side::system.l2.cpu_side       196601                       # Packet count per connected master and slave (bytes)
system.tol2bus.pkt_count_system.cpu0.dcache.mem_side::system.l2.cpu_side        35010                       # Packet count per connected master and slave (bytes)
system.tol2bus.pkt_count::total                231611                       # Packet count per connected master and slave (bytes)
system.tol2bus.pkt_size_system.cpu0.icache.mem_side::system.l2.cpu_side      8388224                       # Cumulative packet size per connected master and slave (bytes)
system.tol2bus.pkt_size_system.cpu0.dcache.mem_side::system.l2.cpu_side      1280448                       # Cumulative packet size per connected master and slave (bytes)
system.tol2bus.pkt_size::total                9668672                       # Cumulative packet size per connected master and slave (bytes)
system.tol2bus.snoops                               3                       # Total snoops (count)
system.tol2bus.snoopTraffic                       192                       # Total snoop traffic (bytes)
system.tol2bus.snoop_fanout::samples            77206                       # Request fanout histogram
system.tol2bus.snoop_fanout::mean            0.000233                       # Request fanout histogram
system.tol2bus.snoop_fanout::stdev           0.015267                       # Request fanout histogram
system.tol2bus.snoop_fanout::underflows             0      0.00%      0.00% # Request fanout histogram
system.tol2bus.snoop_fanout::0                  77188     99.98%     99.98% # Request fanout histogram
system.tol2bus.snoop_fanout::1                     18      0.02%    100.00% # Request fanout histogram
system.tol2bus.snoop_fanout::2                      0      0.00%    100.00% # Request fanout histogram
system.tol2bus.snoop_fanout::3                      0      0.00%    100.00% # Request fanout histogram
system.tol2bus.snoop_fanout::4                      0      0.00%    100.00% # Request fanout histogram
system.tol2bus.snoop_fanout::5                      0      0.00%    100.00% # Request fanout histogram
system.tol2bus.snoop_fanout::6                      0      0.00%    100.00% # Request fanout histogram
system.tol2bus.snoop_fanout::7                      0      0.00%    100.00% # Request fanout histogram
system.tol2bus.snoop_fanout::8                      0      0.00%    100.00% # Request fanout histogram
system.tol2bus.snoop_fanout::9                      0      0.00%    100.00% # Request fanout histogram
system.tol2bus.snoop_fanout::10                     0      0.00%    100.00% # Request fanout histogram
system.tol2bus.snoop_fanout::11                     0      0.00%    100.00% # Request fanout histogram
system.tol2bus.snoop_fanout::12                     0      0.00%    100.00% # Request fanout histogram
system.tol2bus.snoop_fanout::13                     0      0.00%    100.00% # Request fanout histogram
system.tol2bus.snoop_fanout::14                     0      0.00%    100.00% # Request fanout histogram
system.tol2bus.snoop_fanout::15                     0      0.00%    100.00% # Request fanout histogram
system.tol2bus.snoop_fanout::16                     0      0.00%    100.00% # Request fanout histogram
system.tol2bus.snoop_fanout::17                     0      0.00%    100.00% # Request fanout histogram
system.tol2bus.snoop_fanout::18                     0      0.00%    100.00% # Request fanout histogram
system.tol2bus.snoop_fanout::19                     0      0.00%    100.00% # Request fanout histogram
system.tol2bus.snoop_fanout::20                     0      0.00%    100.00% # Request fanout histogram
system.tol2bus.snoop_fanout::21                     0      0.00%    100.00% # Request fanout histogram
system.tol2bus.snoop_fanout::22                     0      0.00%    100.00% # Request fanout histogram
system.tol2bus.snoop_fanout::23                     0      0.00%    100.00% # Request fanout histogram
system.tol2bus.snoop_fanout::24                     0      0.00%    100.00% # Request fanout histogram
system.tol2bus.snoop_fanout::overflows              0      0.00%    100.00% # Request fanout histogram
system.tol2bus.snoop_fanout::min_value              0                       # Request fanout histogram
system.tol2bus.snoop_fanout::max_value              1                       # Request fanout histogram
system.tol2bus.snoop_fanout::total              77206                       # Request fanout histogram
system.tol2bus.reqLayer0.occupancy          151075500                       # Layer occupancy (ticks)
system.tol2bus.reqLayer0.utilization              1.0                       # Layer utilization (%)
system.tol2bus.respLayer0.occupancy          98306495                       # Layer occupancy (ticks)
system.tol2bus.respLayer0.utilization             0.6                       # Layer utilization (%)
system.tol2bus.respLayer1.occupancy          17511484                       # Layer occupancy (ticks)
system.tol2bus.respLayer1.utilization             0.1                       # Layer utilization (%)

---------- End Simulation Statistics   ----------
