
---------- Begin Simulation Statistics ----------
sim_seconds                                  0.015267                       # Number of seconds simulated
sim_ticks                                 15267344125                       # Number of ticks simulated
final_tick                               3679429934125                       # Number of ticks from beginning of simulation (restored from checkpoints and never reset)
sim_freq                                 1000000000000                       # Frequency of simulated ticks
host_inst_rate                               62715786                       # Simulator instruction rate (inst/s)
host_op_rate                                116716927                       # Simulator op (including micro ops) rate (op/s)
host_tick_rate                              162053095                       # Simulator tick rate (ticks/s)
host_mem_usage                                3428912                       # Number of bytes of host memory used
host_seconds                                    94.21                       # Real time elapsed on the host
sim_insts                                  5908577629                       # Number of instructions simulated
sim_ops                                   10996132619                       # Number of ops (including micro ops) simulated
system.voltage_domain.voltage                       1                       # Voltage in Volts
system.clk_domain.clock                          1000                       # Clock period in ticks
system.mem_ctrls.pwrStateResidencyTicks::UNDEFINED  15267344125                       # Cumulative time (in ticks) in various power states
system.mem_ctrls.bytes_read::cpu0.inst            192                       # Number of bytes read from this memory
system.mem_ctrls.bytes_read::cpu0.data        3937728                       # Number of bytes read from this memory
system.mem_ctrls.bytes_read::total            3937920                       # Number of bytes read from this memory
system.mem_ctrls.bytes_inst_read::cpu0.inst          192                       # Number of instructions bytes read from this memory
system.mem_ctrls.bytes_inst_read::total           192                       # Number of instructions bytes read from this memory
system.mem_ctrls.bytes_written::writebacks       326528                       # Number of bytes written to this memory
system.mem_ctrls.bytes_written::total          326528                       # Number of bytes written to this memory
system.mem_ctrls.num_reads::cpu0.inst               3                       # Number of read requests responded to by this memory
system.mem_ctrls.num_reads::cpu0.data           61527                       # Number of read requests responded to by this memory
system.mem_ctrls.num_reads::total               61530                       # Number of read requests responded to by this memory
system.mem_ctrls.num_writes::writebacks          5102                       # Number of write requests responded to by this memory
system.mem_ctrls.num_writes::total               5102                       # Number of write requests responded to by this memory
system.mem_ctrls.bw_read::cpu0.inst             12576                       # Total read bandwidth from this memory (bytes/s)
system.mem_ctrls.bw_read::cpu0.data         257918337                       # Total read bandwidth from this memory (bytes/s)
system.mem_ctrls.bw_read::total             257930912                       # Total read bandwidth from this memory (bytes/s)
system.mem_ctrls.bw_inst_read::cpu0.inst        12576                       # Instruction read bandwidth from this memory (bytes/s)
system.mem_ctrls.bw_inst_read::total            12576                       # Instruction read bandwidth from this memory (bytes/s)
system.mem_ctrls.bw_write::writebacks        21387348                       # Write bandwidth from this memory (bytes/s)
system.mem_ctrls.bw_write::total             21387348                       # Write bandwidth from this memory (bytes/s)
system.mem_ctrls.bw_total::writebacks        21387348                       # Total bandwidth to/from this memory (bytes/s)
system.mem_ctrls.bw_total::cpu0.inst            12576                       # Total bandwidth to/from this memory (bytes/s)
system.mem_ctrls.bw_total::cpu0.data        257918337                       # Total bandwidth to/from this memory (bytes/s)
system.mem_ctrls.bw_total::total            279318260                       # Total bandwidth to/from this memory (bytes/s)
system.mem_ctrls.readReqs                       61530                       # Number of read requests accepted
system.mem_ctrls.writeReqs                       5102                       # Number of write requests accepted
system.mem_ctrls.readBursts                     61530                       # Number of DRAM read bursts, including those serviced by the write queue
system.mem_ctrls.writeBursts                     5102                       # Number of DRAM write bursts, including those merged in the write queue
system.mem_ctrls.bytesReadDRAM                3924480                       # Total number of bytes read from DRAM
system.mem_ctrls.bytesReadWrQ                   13440                       # Total number of bytes read from write queue
system.mem_ctrls.bytesWritten                  326272                       # Total number of bytes written to DRAM
system.mem_ctrls.bytesReadSys                 3937920                       # Total read bytes from the system interface side
system.mem_ctrls.bytesWrittenSys               326528                       # Total written bytes from the system interface side
system.mem_ctrls.servicedByWrQ                    210                       # Number of DRAM read bursts serviced by the write queue
system.mem_ctrls.mergedWrBursts                     0                       # Number of DRAM write bursts merged with an existing one
system.mem_ctrls.neitherReadNorWriteReqs            0                       # Number of requests that are neither read nor write
system.mem_ctrls.perBankRdBursts::0              3822                       # Per bank write bursts
system.mem_ctrls.perBankRdBursts::1              3566                       # Per bank write bursts
system.mem_ctrls.perBankRdBursts::2              3493                       # Per bank write bursts
system.mem_ctrls.perBankRdBursts::3              3433                       # Per bank write bursts
system.mem_ctrls.perBankRdBursts::4              3460                       # Per bank write bursts
system.mem_ctrls.perBankRdBursts::5              3685                       # Per bank write bursts
system.mem_ctrls.perBankRdBursts::6              3543                       # Per bank write bursts
system.mem_ctrls.perBankRdBursts::7              3533                       # Per bank write bursts
system.mem_ctrls.perBankRdBursts::8              3449                       # Per bank write bursts
system.mem_ctrls.perBankRdBursts::9              3311                       # Per bank write bursts
system.mem_ctrls.perBankRdBursts::10             3247                       # Per bank write bursts
system.mem_ctrls.perBankRdBursts::11             3232                       # Per bank write bursts
system.mem_ctrls.perBankRdBursts::12             5108                       # Per bank write bursts
system.mem_ctrls.perBankRdBursts::13             5200                       # Per bank write bursts
system.mem_ctrls.perBankRdBursts::14             4602                       # Per bank write bursts
system.mem_ctrls.perBankRdBursts::15             4636                       # Per bank write bursts
system.mem_ctrls.perBankWrBursts::0               192                       # Per bank write bursts
system.mem_ctrls.perBankWrBursts::1               226                       # Per bank write bursts
system.mem_ctrls.perBankWrBursts::2               259                       # Per bank write bursts
system.mem_ctrls.perBankWrBursts::3               258                       # Per bank write bursts
system.mem_ctrls.perBankWrBursts::4               276                       # Per bank write bursts
system.mem_ctrls.perBankWrBursts::5               489                       # Per bank write bursts
system.mem_ctrls.perBankWrBursts::6               365                       # Per bank write bursts
system.mem_ctrls.perBankWrBursts::7               472                       # Per bank write bursts
system.mem_ctrls.perBankWrBursts::8               556                       # Per bank write bursts
system.mem_ctrls.perBankWrBursts::9               473                       # Per bank write bursts
system.mem_ctrls.perBankWrBursts::10              486                       # Per bank write bursts
system.mem_ctrls.perBankWrBursts::11              405                       # Per bank write bursts
system.mem_ctrls.perBankWrBursts::12              199                       # Per bank write bursts
system.mem_ctrls.perBankWrBursts::13              160                       # Per bank write bursts
system.mem_ctrls.perBankWrBursts::14              114                       # Per bank write bursts
system.mem_ctrls.perBankWrBursts::15              168                       # Per bank write bursts
system.mem_ctrls.numRdRetry                         0                       # Number of times read queue was full causing retry
system.mem_ctrls.numWrRetry                         0                       # Number of times write queue was full causing retry
system.mem_ctrls.totGap                   15280165000                       # Total gap between requests
system.mem_ctrls.readPktSize::0                     0                       # Read request sizes (log2)
system.mem_ctrls.readPktSize::1                     0                       # Read request sizes (log2)
system.mem_ctrls.readPktSize::2                     0                       # Read request sizes (log2)
system.mem_ctrls.readPktSize::3                     0                       # Read request sizes (log2)
system.mem_ctrls.readPktSize::4                     0                       # Read request sizes (log2)
system.mem_ctrls.readPktSize::5                     0                       # Read request sizes (log2)
system.mem_ctrls.readPktSize::6                 61530                       # Read request sizes (log2)
system.mem_ctrls.writePktSize::0                    0                       # Write request sizes (log2)
system.mem_ctrls.writePktSize::1                    0                       # Write request sizes (log2)
system.mem_ctrls.writePktSize::2                    0                       # Write request sizes (log2)
system.mem_ctrls.writePktSize::3                    0                       # Write request sizes (log2)
system.mem_ctrls.writePktSize::4                    0                       # Write request sizes (log2)
system.mem_ctrls.writePktSize::5                    0                       # Write request sizes (log2)
system.mem_ctrls.writePktSize::6                 5102                       # Write request sizes (log2)
system.mem_ctrls.rdQLenPdf::0                   50123                       # What read queue length does an incoming req see
system.mem_ctrls.rdQLenPdf::1                   10255                       # What read queue length does an incoming req see
system.mem_ctrls.rdQLenPdf::2                     903                       # What read queue length does an incoming req see
system.mem_ctrls.rdQLenPdf::3                      38                       # What read queue length does an incoming req see
system.mem_ctrls.rdQLenPdf::4                       1                       # What read queue length does an incoming req see
system.mem_ctrls.rdQLenPdf::5                       0                       # What read queue length does an incoming req see
system.mem_ctrls.rdQLenPdf::6                       0                       # What read queue length does an incoming req see
system.mem_ctrls.rdQLenPdf::7                       0                       # What read queue length does an incoming req see
system.mem_ctrls.rdQLenPdf::8                       0                       # What read queue length does an incoming req see
system.mem_ctrls.rdQLenPdf::9                       0                       # What read queue length does an incoming req see
system.mem_ctrls.rdQLenPdf::10                      0                       # What read queue length does an incoming req see
system.mem_ctrls.rdQLenPdf::11                      0                       # What read queue length does an incoming req see
system.mem_ctrls.rdQLenPdf::12                      0                       # What read queue length does an incoming req see
system.mem_ctrls.rdQLenPdf::13                      0                       # What read queue length does an incoming req see
system.mem_ctrls.rdQLenPdf::14                      0                       # What read queue length does an incoming req see
system.mem_ctrls.rdQLenPdf::15                      0                       # What read queue length does an incoming req see
system.mem_ctrls.rdQLenPdf::16                      0                       # What read queue length does an incoming req see
system.mem_ctrls.rdQLenPdf::17                      0                       # What read queue length does an incoming req see
system.mem_ctrls.rdQLenPdf::18                      0                       # What read queue length does an incoming req see
system.mem_ctrls.rdQLenPdf::19                      0                       # What read queue length does an incoming req see
system.mem_ctrls.rdQLenPdf::20                      0                       # What read queue length does an incoming req see
system.mem_ctrls.rdQLenPdf::21                      0                       # What read queue length does an incoming req see
system.mem_ctrls.rdQLenPdf::22                      0                       # What read queue length does an incoming req see
system.mem_ctrls.rdQLenPdf::23                      0                       # What read queue length does an incoming req see
system.mem_ctrls.rdQLenPdf::24                      0                       # What read queue length does an incoming req see
system.mem_ctrls.rdQLenPdf::25                      0                       # What read queue length does an incoming req see
system.mem_ctrls.rdQLenPdf::26                      0                       # What read queue length does an incoming req see
system.mem_ctrls.rdQLenPdf::27                      0                       # What read queue length does an incoming req see
system.mem_ctrls.rdQLenPdf::28                      0                       # What read queue length does an incoming req see
system.mem_ctrls.rdQLenPdf::29                      0                       # What read queue length does an incoming req see
system.mem_ctrls.rdQLenPdf::30                      0                       # What read queue length does an incoming req see
system.mem_ctrls.rdQLenPdf::31                      0                       # What read queue length does an incoming req see
system.mem_ctrls.wrQLenPdf::0                       0                       # What write queue length does an incoming req see
system.mem_ctrls.wrQLenPdf::1                       0                       # What write queue length does an incoming req see
system.mem_ctrls.wrQLenPdf::2                       0                       # What write queue length does an incoming req see
system.mem_ctrls.wrQLenPdf::3                       0                       # What write queue length does an incoming req see
system.mem_ctrls.wrQLenPdf::4                       0                       # What write queue length does an incoming req see
system.mem_ctrls.wrQLenPdf::5                       0                       # What write queue length does an incoming req see
system.mem_ctrls.wrQLenPdf::6                       0                       # What write queue length does an incoming req see
system.mem_ctrls.wrQLenPdf::7                       0                       # What write queue length does an incoming req see
system.mem_ctrls.wrQLenPdf::8                       0                       # What write queue length does an incoming req see
system.mem_ctrls.wrQLenPdf::9                       0                       # What write queue length does an incoming req see
system.mem_ctrls.wrQLenPdf::10                      0                       # What write queue length does an incoming req see
system.mem_ctrls.wrQLenPdf::11                      0                       # What write queue length does an incoming req see
system.mem_ctrls.wrQLenPdf::12                      0                       # What write queue length does an incoming req see
system.mem_ctrls.wrQLenPdf::13                      0                       # What write queue length does an incoming req see
system.mem_ctrls.wrQLenPdf::14                      0                       # What write queue length does an incoming req see
system.mem_ctrls.wrQLenPdf::15                     66                       # What write queue length does an incoming req see
system.mem_ctrls.wrQLenPdf::16                     67                       # What write queue length does an incoming req see
system.mem_ctrls.wrQLenPdf::17                    287                       # What write queue length does an incoming req see
system.mem_ctrls.wrQLenPdf::18                    310                       # What write queue length does an incoming req see
system.mem_ctrls.wrQLenPdf::19                    310                       # What write queue length does an incoming req see
system.mem_ctrls.wrQLenPdf::20                    312                       # What write queue length does an incoming req see
system.mem_ctrls.wrQLenPdf::21                    312                       # What write queue length does an incoming req see
system.mem_ctrls.wrQLenPdf::22                    311                       # What write queue length does an incoming req see
system.mem_ctrls.wrQLenPdf::23                    311                       # What write queue length does an incoming req see
system.mem_ctrls.wrQLenPdf::24                    310                       # What write queue length does an incoming req see
system.mem_ctrls.wrQLenPdf::25                    310                       # What write queue length does an incoming req see
system.mem_ctrls.wrQLenPdf::26                    310                       # What write queue length does an incoming req see
system.mem_ctrls.wrQLenPdf::27                    312                       # What write queue length does an incoming req see
system.mem_ctrls.wrQLenPdf::28                    312                       # What write queue length does an incoming req see
system.mem_ctrls.wrQLenPdf::29                    319                       # What write queue length does an incoming req see
system.mem_ctrls.wrQLenPdf::30                    317                       # What write queue length does an incoming req see
system.mem_ctrls.wrQLenPdf::31                    314                       # What write queue length does an incoming req see
system.mem_ctrls.wrQLenPdf::32                    312                       # What write queue length does an incoming req see
system.mem_ctrls.wrQLenPdf::33                      0                       # What write queue length does an incoming req see
system.mem_ctrls.wrQLenPdf::34                      0                       # What write queue length does an incoming req see
system.mem_ctrls.wrQLenPdf::35                      0                       # What write queue length does an incoming req see
system.mem_ctrls.wrQLenPdf::36                      0                       # What write queue length does an incoming req see
system.mem_ctrls.wrQLenPdf::37                      0                       # What write queue length does an incoming req see
system.mem_ctrls.wrQLenPdf::38                      0                       # What write queue length does an incoming req see
system.mem_ctrls.wrQLenPdf::39                      0                       # What write queue length does an incoming req see
system.mem_ctrls.wrQLenPdf::40                      0                       # What write queue length does an incoming req see
system.mem_ctrls.wrQLenPdf::41                      0                       # What write queue length does an incoming req see
system.mem_ctrls.wrQLenPdf::42                      0                       # What write queue length does an incoming req see
system.mem_ctrls.wrQLenPdf::43                      0                       # What write queue length does an incoming req see
system.mem_ctrls.wrQLenPdf::44                      0                       # What write queue length does an incoming req see
system.mem_ctrls.wrQLenPdf::45                      0                       # What write queue length does an incoming req see
system.mem_ctrls.wrQLenPdf::46                      0                       # What write queue length does an incoming req see
system.mem_ctrls.wrQLenPdf::47                      0                       # What write queue length does an incoming req see
system.mem_ctrls.wrQLenPdf::48                      0                       # What write queue length does an incoming req see
system.mem_ctrls.wrQLenPdf::49                      0                       # What write queue length does an incoming req see
system.mem_ctrls.wrQLenPdf::50                      0                       # What write queue length does an incoming req see
system.mem_ctrls.wrQLenPdf::51                      0                       # What write queue length does an incoming req see
system.mem_ctrls.wrQLenPdf::52                      0                       # What write queue length does an incoming req see
system.mem_ctrls.wrQLenPdf::53                      0                       # What write queue length does an incoming req see
system.mem_ctrls.wrQLenPdf::54                      0                       # What write queue length does an incoming req see
system.mem_ctrls.wrQLenPdf::55                      0                       # What write queue length does an incoming req see
system.mem_ctrls.wrQLenPdf::56                      0                       # What write queue length does an incoming req see
system.mem_ctrls.wrQLenPdf::57                      0                       # What write queue length does an incoming req see
system.mem_ctrls.wrQLenPdf::58                      0                       # What write queue length does an incoming req see
system.mem_ctrls.wrQLenPdf::59                      0                       # What write queue length does an incoming req see
system.mem_ctrls.wrQLenPdf::60                      0                       # What write queue length does an incoming req see
system.mem_ctrls.wrQLenPdf::61                      0                       # What write queue length does an incoming req see
system.mem_ctrls.wrQLenPdf::62                      0                       # What write queue length does an incoming req see
system.mem_ctrls.wrQLenPdf::63                      0                       # What write queue length does an incoming req see
system.mem_ctrls.bytesPerActivate::samples        47323                       # Bytes accessed per row activation
system.mem_ctrls.bytesPerActivate::mean     89.787714                       # Bytes accessed per row activation
system.mem_ctrls.bytesPerActivate::gmean    81.459883                       # Bytes accessed per row activation
system.mem_ctrls.bytesPerActivate::stdev    48.079501                       # Bytes accessed per row activation
system.mem_ctrls.bytesPerActivate::64-127        33770     71.36%     71.36% # Bytes accessed per row activation
system.mem_ctrls.bytesPerActivate::128-191         9575     20.23%     91.59% # Bytes accessed per row activation
system.mem_ctrls.bytesPerActivate::192-255         2855      6.03%     97.63% # Bytes accessed per row activation
system.mem_ctrls.bytesPerActivate::256-319          841      1.78%     99.40% # Bytes accessed per row activation
system.mem_ctrls.bytesPerActivate::320-383          195      0.41%     99.82% # Bytes accessed per row activation
system.mem_ctrls.bytesPerActivate::384-447           55      0.12%     99.93% # Bytes accessed per row activation
system.mem_ctrls.bytesPerActivate::448-511           23      0.05%     99.98% # Bytes accessed per row activation
system.mem_ctrls.bytesPerActivate::512-575            6      0.01%     99.99% # Bytes accessed per row activation
system.mem_ctrls.bytesPerActivate::576-639            2      0.00%    100.00% # Bytes accessed per row activation
system.mem_ctrls.bytesPerActivate::640-703            1      0.00%    100.00% # Bytes accessed per row activation
system.mem_ctrls.bytesPerActivate::total        47323                       # Bytes accessed per row activation
system.mem_ctrls.rdPerTurnAround::samples          310                       # Reads before turning the bus around for writes
system.mem_ctrls.rdPerTurnAround::mean     197.300000                       # Reads before turning the bus around for writes
system.mem_ctrls.rdPerTurnAround::gmean    188.481423                       # Reads before turning the bus around for writes
system.mem_ctrls.rdPerTurnAround::stdev     59.273026                       # Reads before turning the bus around for writes
system.mem_ctrls.rdPerTurnAround::64-79             4      1.29%      1.29% # Reads before turning the bus around for writes
system.mem_ctrls.rdPerTurnAround::80-95             6      1.94%      3.23% # Reads before turning the bus around for writes
system.mem_ctrls.rdPerTurnAround::96-111            4      1.29%      4.52% # Reads before turning the bus around for writes
system.mem_ctrls.rdPerTurnAround::112-127           20      6.45%     10.97% # Reads before turning the bus around for writes
system.mem_ctrls.rdPerTurnAround::128-143           14      4.52%     15.48% # Reads before turning the bus around for writes
system.mem_ctrls.rdPerTurnAround::144-159           32     10.32%     25.81% # Reads before turning the bus around for writes
system.mem_ctrls.rdPerTurnAround::160-175           33     10.65%     36.45% # Reads before turning the bus around for writes
system.mem_ctrls.rdPerTurnAround::176-191           40     12.90%     49.35% # Reads before turning the bus around for writes
system.mem_ctrls.rdPerTurnAround::192-207           42     13.55%     62.90% # Reads before turning the bus around for writes
system.mem_ctrls.rdPerTurnAround::208-223           33     10.65%     73.55% # Reads before turning the bus around for writes
system.mem_ctrls.rdPerTurnAround::224-239           18      5.81%     79.35% # Reads before turning the bus around for writes
system.mem_ctrls.rdPerTurnAround::240-255           16      5.16%     84.52% # Reads before turning the bus around for writes
system.mem_ctrls.rdPerTurnAround::256-271           13      4.19%     88.71% # Reads before turning the bus around for writes
system.mem_ctrls.rdPerTurnAround::272-287           14      4.52%     93.23% # Reads before turning the bus around for writes
system.mem_ctrls.rdPerTurnAround::288-303            5      1.61%     94.84% # Reads before turning the bus around for writes
system.mem_ctrls.rdPerTurnAround::304-319            6      1.94%     96.77% # Reads before turning the bus around for writes
system.mem_ctrls.rdPerTurnAround::320-335            3      0.97%     97.74% # Reads before turning the bus around for writes
system.mem_ctrls.rdPerTurnAround::336-351            4      1.29%     99.03% # Reads before turning the bus around for writes
system.mem_ctrls.rdPerTurnAround::368-383            1      0.32%     99.35% # Reads before turning the bus around for writes
system.mem_ctrls.rdPerTurnAround::432-447            2      0.65%    100.00% # Reads before turning the bus around for writes
system.mem_ctrls.rdPerTurnAround::total           310                       # Reads before turning the bus around for writes
system.mem_ctrls.wrPerTurnAround::samples          310                       # Writes before turning the bus around for reads
system.mem_ctrls.wrPerTurnAround::mean      16.445161                       # Writes before turning the bus around for reads
system.mem_ctrls.wrPerTurnAround::gmean     16.424515                       # Writes before turning the bus around for reads
system.mem_ctrls.wrPerTurnAround::stdev      0.844874                       # Writes before turning the bus around for reads
system.mem_ctrls.wrPerTurnAround::16              241     77.74%     77.74% # Writes before turning the bus around for reads
system.mem_ctrls.wrPerTurnAround::17                3      0.97%     78.71% # Writes before turning the bus around for reads
system.mem_ctrls.wrPerTurnAround::18               63     20.32%     99.03% # Writes before turning the bus around for reads
system.mem_ctrls.wrPerTurnAround::19                3      0.97%    100.00% # Writes before turning the bus around for reads
system.mem_ctrls.wrPerTurnAround::total           310                       # Writes before turning the bus around for reads
system.mem_ctrls.totQLat                   1846689000                       # Total ticks spent queuing
system.mem_ctrls.totMemAccLat              2996439000                       # Total ticks spent from burst creation until serviced by the DRAM
system.mem_ctrls.totBusLat                  306600000                       # Total ticks spent in databus transfers
system.mem_ctrls.avgQLat                     30115.61                       # Average queueing delay per DRAM burst
system.mem_ctrls.avgBusLat                    5000.00                       # Average bus latency per DRAM burst
system.mem_ctrls.avgMemAccLat                48865.61                       # Average memory access latency per DRAM burst
system.mem_ctrls.avgRdBW                       257.05                       # Average DRAM read bandwidth in MiByte/s
system.mem_ctrls.avgWrBW                        21.37                       # Average achieved write bandwidth in MiByte/s
system.mem_ctrls.avgRdBWSys                    257.93                       # Average system read bandwidth in MiByte/s
system.mem_ctrls.avgWrBWSys                     21.39                       # Average system write bandwidth in MiByte/s
system.mem_ctrls.peakBW                      12800.00                       # Theoretical peak bandwidth in MiByte/s
system.mem_ctrls.busUtil                         2.18                       # Data bus utilization in percentage
system.mem_ctrls.busUtilRead                     2.01                       # Data bus utilization in percentage for reads
system.mem_ctrls.busUtilWrite                    0.17                       # Data bus utilization in percentage for writes
system.mem_ctrls.avgRdQLen                       1.13                       # Average read queue length when enqueuing
system.mem_ctrls.avgWrQLen                      25.19                       # Average write queue length when enqueuing
system.mem_ctrls.readRowHits                    17916                       # Number of row buffer hits during reads
system.mem_ctrls.writeRowHits                    1166                       # Number of row buffer hits during writes
system.mem_ctrls.readRowHitRate                 29.22                       # Row buffer hit rate for reads
system.mem_ctrls.writeRowHitRate                22.85                       # Row buffer hit rate for writes
system.mem_ctrls.avgGap                     229321.72                       # Average gap between requests
system.mem_ctrls.pageHitRate                    28.73                       # Row buffer hit rate, read and write combined
system.mem_ctrls_0.actEnergy                159229140                       # Energy for activate commands per rank (pJ)
system.mem_ctrls_0.preEnergy                 84609525                       # Energy for precharge commands per rank (pJ)
system.mem_ctrls_0.readEnergy               203739900                       # Energy for read commands per rank (pJ)
system.mem_ctrls_0.writeEnergy               13243140                       # Energy for write commands per rank (pJ)
system.mem_ctrls_0.refreshEnergy         1213914000.000000                       # Energy for refresh commands per rank (pJ)
system.mem_ctrls_0.actBackEnergy            769716600                       # Energy for active background per rank (pJ)
system.mem_ctrls_0.preBackEnergy             39920640                       # Energy for precharge background per rank (pJ)
system.mem_ctrls_0.actPowerDownEnergy      4368141990                       # Energy for active power-down per rank (pJ)
system.mem_ctrls_0.prePowerDownEnergy      1077136320                       # Energy for precharge power-down per rank (pJ)
system.mem_ctrls_0.selfRefreshEnergy        352985700                       # Energy for self refresh per rank (pJ)
system.mem_ctrls_0.totalEnergy             8283019485                       # Total energy per rank (pJ)
system.mem_ctrls_0.averagePower            542.531787                       # Core power per rank (mW)
system.mem_ctrls_0.totalIdleTime          13473875500                       # Total Idle time Per DRAM Rank
system.mem_ctrls_0.memoryStateTime::IDLE     52992000                       # Time in different power states
system.mem_ctrls_0.memoryStateTime::REF     514496000                       # Time in different power states
system.mem_ctrls_0.memoryStateTime::SREF   1090259500                       # Time in different power states
system.mem_ctrls_0.memoryStateTime::PRE_PDN   2805060500                       # Time in different power states
system.mem_ctrls_0.memoryStateTime::ACT    1225207750                       # Time in different power states
system.mem_ctrls_0.memoryStateTime::ACT_PDN   9579328375                       # Time in different power states
system.mem_ctrls_1.actEnergy                178749900                       # Energy for activate commands per rank (pJ)
system.mem_ctrls_1.preEnergy                 94981260                       # Energy for precharge commands per rank (pJ)
system.mem_ctrls_1.readEnergy               234084900                       # Energy for read commands per rank (pJ)
system.mem_ctrls_1.writeEnergy               13368420                       # Energy for write commands per rank (pJ)
system.mem_ctrls_1.refreshEnergy         1243416720.000000                       # Energy for refresh commands per rank (pJ)
system.mem_ctrls_1.actBackEnergy            848895870                       # Energy for active background per rank (pJ)
system.mem_ctrls_1.preBackEnergy             38313120                       # Energy for precharge background per rank (pJ)
system.mem_ctrls_1.actPowerDownEnergy      4626284730                       # Energy for active power-down per rank (pJ)
system.mem_ctrls_1.prePowerDownEnergy      1008019200                       # Energy for precharge power-down per rank (pJ)
system.mem_ctrls_1.selfRefreshEnergy        205844700                       # Energy for self refresh per rank (pJ)
system.mem_ctrls_1.totalEnergy             8492513760                       # Total energy per rank (pJ)
system.mem_ctrls_1.averagePower            556.253510                       # Core power per rank (mW)
system.mem_ctrls_1.totalIdleTime          13304657250                       # Total Idle time Per DRAM Rank
system.mem_ctrls_1.memoryStateTime::IDLE     46896000                       # Time in different power states
system.mem_ctrls_1.memoryStateTime::REF     526850000                       # Time in different power states
system.mem_ctrls_1.memoryStateTime::SREF    534307000                       # Time in different power states
system.mem_ctrls_1.memoryStateTime::PRE_PDN   2625045750                       # Time in different power states
system.mem_ctrls_1.memoryStateTime::ACT    1388929000                       # Time in different power states
system.mem_ctrls_1.memoryStateTime::ACT_PDN  10145316375                       # Time in different power states
system.pwrStateResidencyTicks::UNDEFINED  15267344125                       # Cumulative time (in ticks) in various power states
system.cpu0.branchPred.lookups                5491994                       # Number of BP lookups
system.cpu0.branchPred.condPredicted          5491994                       # Number of conditional branches predicted
system.cpu0.branchPred.condIncorrect           223639                       # Number of conditional branches incorrect
system.cpu0.branchPred.BTBLookups             4338313                       # Number of BTB lookups
system.cpu0.branchPred.BTBHits                      0                       # Number of BTB hits
system.cpu0.branchPred.BTBCorrect                   0                       # Number of correct BTB predictions (this stat may not work properly.
system.cpu0.branchPred.BTBHitPct             0.000000                       # BTB Hit Percentage
system.cpu0.branchPred.usedRAS                 125099                       # Number of times the RAS was used to get a target.
system.cpu0.branchPred.RASInCorrect             16762                       # Number of incorrect RAS predictions.
system.cpu0.branchPred.indirectLookups        4338313                       # Number of indirect predictor lookups.
system.cpu0.branchPred.indirectHits           2366255                       # Number of indirect target hits.
system.cpu0.branchPred.indirectMisses         1972058                       # Number of indirect misses.
system.cpu0.branchPredindirectMispredicted        71746                       # Number of mispredicted indirect branches.
system.cpu_voltage_domain.voltage                   1                       # Voltage in Volts
system.cpu_clk_domain.clock                       500                       # Clock period in ticks
system.cpu0.dtb.walker.pwrStateResidencyTicks::UNDEFINED  15267344125                       # Cumulative time (in ticks) in various power states
system.cpu0.dtb.rdAccesses                    2589918                       # TLB accesses on read requests
system.cpu0.dtb.wrAccesses                     150017                       # TLB accesses on write requests
system.cpu0.dtb.rdMisses                       552528                       # TLB misses on read requests
system.cpu0.dtb.wrMisses                         3152                       # TLB misses on write requests
system.cpu0.apic_clk_domain.clock                8000                       # Clock period in ticks
system.cpu0.interrupts.pwrStateResidencyTicks::UNDEFINED  15267344125                       # Cumulative time (in ticks) in various power states
system.cpu0.itb.walker.pwrStateResidencyTicks::UNDEFINED  15267344125                       # Cumulative time (in ticks) in various power states
system.cpu0.itb.rdAccesses                          0                       # TLB accesses on read requests
system.cpu0.itb.wrAccesses                    4667199                       # TLB accesses on write requests
system.cpu0.itb.rdMisses                            0                       # TLB misses on read requests
system.cpu0.itb.wrMisses                        12214                       # TLB misses on write requests
system.cpu0.workload.numSyscalls                    1                       # Number of system calls
system.cpu0.pwrStateResidencyTicks::ON    15267344125                       # Cumulative time (in ticks) in various power states
system.cpu0.numCycles                        30534688                       # number of cpu cycles simulated
system.cpu0.numWorkItemsStarted                     0                       # number of work items this cpu started
system.cpu0.numWorkItemsCompleted                   0                       # number of work items this cpu completed
system.cpu0.fetch.icacheStallCycles           4763568                       # Number of cycles fetch is stalled on an Icache miss
system.cpu0.fetch.Insts                      15640356                       # Number of instructions fetch has processed
system.cpu0.fetch.Branches                    5491994                       # Number of branches that fetch encountered
system.cpu0.fetch.predictedBranches           2491354                       # Number of branches that fetch has predicted taken
system.cpu0.fetch.Cycles                     25434533                       # Number of cycles fetch has run and was not squashing or blocked
system.cpu0.fetch.SquashCycles                 454544                       # Number of cycles fetch has spent squashing
system.cpu0.fetch.TlbCycles                      1243                       # Number of cycles fetch has spent waiting for tlb
system.cpu0.fetch.MiscStallCycles                2570                       # Number of cycles fetch has spent waiting on interrupts, or bad addresses, or out of MSHRs
system.cpu0.fetch.PendingTrapStallCycles        89949                       # Number of stall cycles due to pending traps
system.cpu0.fetch.CacheLines                  4654985                       # Number of cache lines fetched
system.cpu0.fetch.IcacheSquashes                37209                       # Number of outstanding Icache misses that were squashed
system.cpu0.fetch.ItlbSquashes                     13                       # Number of outstanding ITLB misses that were squashed
system.cpu0.fetch.rateDist::samples          30519135                       # Number of instructions fetched each cycle (Total)
system.cpu0.fetch.rateDist::mean             1.028652                       # Number of instructions fetched each cycle (Total)
system.cpu0.fetch.rateDist::stdev            2.407506                       # Number of instructions fetched each cycle (Total)
system.cpu0.fetch.rateDist::underflows              0      0.00%      0.00% # Number of instructions fetched each cycle (Total)
system.cpu0.fetch.rateDist::0                24404001     79.96%     79.96% # Number of instructions fetched each cycle (Total)
system.cpu0.fetch.rateDist::1                   74250      0.24%     80.21% # Number of instructions fetched each cycle (Total)
system.cpu0.fetch.rateDist::2                 2324611      7.62%     87.82% # Number of instructions fetched each cycle (Total)
system.cpu0.fetch.rateDist::3                   71225      0.23%     88.06% # Number of instructions fetched each cycle (Total)
system.cpu0.fetch.rateDist::4                  415254      1.36%     89.42% # Number of instructions fetched each cycle (Total)
system.cpu0.fetch.rateDist::5                  160373      0.53%     89.94% # Number of instructions fetched each cycle (Total)
system.cpu0.fetch.rateDist::6                  250853      0.82%     90.76% # Number of instructions fetched each cycle (Total)
system.cpu0.fetch.rateDist::7                   60106      0.20%     90.96% # Number of instructions fetched each cycle (Total)
system.cpu0.fetch.rateDist::8                 2758462      9.04%    100.00% # Number of instructions fetched each cycle (Total)
system.cpu0.fetch.rateDist::overflows               0      0.00%    100.00% # Number of instructions fetched each cycle (Total)
system.cpu0.fetch.rateDist::min_value               0                       # Number of instructions fetched each cycle (Total)
system.cpu0.fetch.rateDist::max_value               8                       # Number of instructions fetched each cycle (Total)
system.cpu0.fetch.rateDist::total            30519135                       # Number of instructions fetched each cycle (Total)
system.cpu0.fetch.branchRate                 0.179861                       # Number of branch fetches per cycle
system.cpu0.fetch.rate                       0.512216                       # Number of inst fetches per cycle
system.cpu0.decode.IdleCycles                 2487756                       # Number of cycles decode is idle
system.cpu0.decode.BlockedCycles             23623168                       # Number of cycles decode is blocked
system.cpu0.decode.RunCycles                  3211786                       # Number of cycles decode is running
system.cpu0.decode.UnblockCycles               969153                       # Number of cycles decode is unblocking
system.cpu0.decode.SquashCycles                227272                       # Number of cycles decode is squashing
system.cpu0.decode.DecodedInsts              26605941                       # Number of instructions handled by decode
system.cpu0.rename.SquashCycles                227272                       # Number of cycles rename is squashing
system.cpu0.rename.IdleCycles                 2847809                       # Number of cycles rename is idle
system.cpu0.rename.BlockCycles               20417847                       # Number of cycles rename is blocking
system.cpu0.rename.serializeStallCycles         46266                       # count of cycles rename stalled for serializing inst
system.cpu0.rename.RunCycles                  3623291                       # Number of cycles rename is running
system.cpu0.rename.UnblockCycles              3356650                       # Number of cycles rename is unblocking
system.cpu0.rename.RenamedInsts              25588659                       # Number of instructions processed by rename
system.cpu0.rename.ROBFullEvents                60393                       # Number of times rename has blocked due to ROB full
system.cpu0.rename.IQFullEvents               3019175                       # Number of times rename has blocked due to IQ full
system.cpu0.rename.LQFullEvents                140208                       # Number of times rename has blocked due to LQ full
system.cpu0.rename.SQFullEvents                 36851                       # Number of times rename has blocked due to SQ full
system.cpu0.rename.RenamedOperands           30519767                       # Number of destination operands rename has renamed
system.cpu0.rename.RenameLookups             71625195                       # Number of register rename lookups that rename has made
system.cpu0.rename.int_rename_lookups        33249835                       # Number of integer rename lookups
system.cpu0.rename.fp_rename_lookups           117074                       # Number of floating rename lookups
system.cpu0.rename.CommittedMaps             11082367                       # Number of HB maps that are committed
system.cpu0.rename.UndoneMaps                19437400                       # Number of HB maps that are undone due to squashing
system.cpu0.rename.serializingInsts              1287                       # count of serializing insts renamed
system.cpu0.rename.tempSerializingInsts          1467                       # count of temporary serializing insts renamed
system.cpu0.rename.skidInsts                  6020476                       # count of insts added to the skid buffer
system.cpu0.memDep0.insertedLoads             4657761                       # Number of loads inserted to the mem dependence unit.
system.cpu0.memDep0.insertedStores             223866                       # Number of stores inserted to the mem dependence unit.
system.cpu0.memDep0.conflictingLoads            13116                       # Number of conflicting loads.
system.cpu0.memDep0.conflictingStores           14443                       # Number of conflicting stores.
system.cpu0.iq.iqInstsAdded                  24302285                       # Number of instructions added to the IQ (excludes non-spec)
system.cpu0.iq.iqNonSpecInstsAdded              13001                       # Number of non-speculative instructions added to the IQ
system.cpu0.iq.iqInstsIssued                 17277945                       # Number of instructions issued
system.cpu0.iq.iqSquashedInstsIssued            21942                       # Number of squashed instructions issued
system.cpu0.iq.iqSquashedInstsExamined       15065095                       # Number of squashed instructions iterated over during squash; mainly for profiling
system.cpu0.iq.iqSquashedOperandsExamined     32650360                       # Number of squashed operands that are examined and possibly removed from graph
system.cpu0.iq.iqSquashedNonSpecRemoved         13000                       # Number of squashed non-spec instructions that were removed
system.cpu0.iq.issued_per_cycle::samples     30519135                       # Number of insts issued each cycle
system.cpu0.iq.issued_per_cycle::mean        0.566135                       # Number of insts issued each cycle
system.cpu0.iq.issued_per_cycle::stdev       1.310867                       # Number of insts issued each cycle
system.cpu0.iq.issued_per_cycle::underflows            0      0.00%      0.00% # Number of insts issued each cycle
system.cpu0.iq.issued_per_cycle::0           23759188     77.85%     77.85% # Number of insts issued each cycle
system.cpu0.iq.issued_per_cycle::1            2449832      8.03%     85.88% # Number of insts issued each cycle
system.cpu0.iq.issued_per_cycle::2            1431372      4.69%     90.57% # Number of insts issued each cycle
system.cpu0.iq.issued_per_cycle::3             997444      3.27%     93.84% # Number of insts issued each cycle
system.cpu0.iq.issued_per_cycle::4            1096630      3.59%     97.43% # Number of insts issued each cycle
system.cpu0.iq.issued_per_cycle::5             358621      1.18%     98.60% # Number of insts issued each cycle
system.cpu0.iq.issued_per_cycle::6             259228      0.85%     99.45% # Number of insts issued each cycle
system.cpu0.iq.issued_per_cycle::7              96516      0.32%     99.77% # Number of insts issued each cycle
system.cpu0.iq.issued_per_cycle::8              70304      0.23%    100.00% # Number of insts issued each cycle
system.cpu0.iq.issued_per_cycle::overflows            0      0.00%    100.00% # Number of insts issued each cycle
system.cpu0.iq.issued_per_cycle::min_value            0                       # Number of insts issued each cycle
system.cpu0.iq.issued_per_cycle::max_value            8                       # Number of insts issued each cycle
system.cpu0.iq.issued_per_cycle::total       30519135                       # Number of insts issued each cycle
system.cpu0.iq.fu_full::No_OpClass                  0      0.00%      0.00% # attempts to use FU when none available
system.cpu0.iq.fu_full::IntAlu                  37874     72.77%     72.77% # attempts to use FU when none available
system.cpu0.iq.fu_full::IntMult                     0      0.00%     72.77% # attempts to use FU when none available
system.cpu0.iq.fu_full::IntDiv                      0      0.00%     72.77% # attempts to use FU when none available
system.cpu0.iq.fu_full::FloatAdd                 3444      6.62%     79.39% # attempts to use FU when none available
system.cpu0.iq.fu_full::FloatCmp                    0      0.00%     79.39% # attempts to use FU when none available
system.cpu0.iq.fu_full::FloatCvt                    0      0.00%     79.39% # attempts to use FU when none available
system.cpu0.iq.fu_full::FloatMult                   0      0.00%     79.39% # attempts to use FU when none available
system.cpu0.iq.fu_full::FloatMultAcc                0      0.00%     79.39% # attempts to use FU when none available
system.cpu0.iq.fu_full::FloatDiv                    0      0.00%     79.39% # attempts to use FU when none available
system.cpu0.iq.fu_full::FloatMisc                   0      0.00%     79.39% # attempts to use FU when none available
system.cpu0.iq.fu_full::FloatSqrt                   0      0.00%     79.39% # attempts to use FU when none available
system.cpu0.iq.fu_full::SimdAdd                     0      0.00%     79.39% # attempts to use FU when none available
system.cpu0.iq.fu_full::SimdAddAcc                  0      0.00%     79.39% # attempts to use FU when none available
system.cpu0.iq.fu_full::SimdAlu                     0      0.00%     79.39% # attempts to use FU when none available
system.cpu0.iq.fu_full::SimdCmp                     0      0.00%     79.39% # attempts to use FU when none available
system.cpu0.iq.fu_full::SimdCvt                     0      0.00%     79.39% # attempts to use FU when none available
system.cpu0.iq.fu_full::SimdMisc                    0      0.00%     79.39% # attempts to use FU when none available
system.cpu0.iq.fu_full::SimdMult                    0      0.00%     79.39% # attempts to use FU when none available
system.cpu0.iq.fu_full::SimdMultAcc                 0      0.00%     79.39% # attempts to use FU when none available
system.cpu0.iq.fu_full::SimdShift                   0      0.00%     79.39% # attempts to use FU when none available
system.cpu0.iq.fu_full::SimdShiftAcc                0      0.00%     79.39% # attempts to use FU when none available
system.cpu0.iq.fu_full::SimdSqrt                    0      0.00%     79.39% # attempts to use FU when none available
system.cpu0.iq.fu_full::SimdFloatAdd                0      0.00%     79.39% # attempts to use FU when none available
system.cpu0.iq.fu_full::SimdFloatAlu                0      0.00%     79.39% # attempts to use FU when none available
system.cpu0.iq.fu_full::SimdFloatCmp                0      0.00%     79.39% # attempts to use FU when none available
system.cpu0.iq.fu_full::SimdFloatCvt                0      0.00%     79.39% # attempts to use FU when none available
system.cpu0.iq.fu_full::SimdFloatDiv                0      0.00%     79.39% # attempts to use FU when none available
system.cpu0.iq.fu_full::SimdFloatMisc               0      0.00%     79.39% # attempts to use FU when none available
system.cpu0.iq.fu_full::SimdFloatMult               0      0.00%     79.39% # attempts to use FU when none available
system.cpu0.iq.fu_full::SimdFloatMultAcc            0      0.00%     79.39% # attempts to use FU when none available
system.cpu0.iq.fu_full::SimdFloatSqrt               0      0.00%     79.39% # attempts to use FU when none available
system.cpu0.iq.fu_full::MemRead                  9210     17.70%     97.09% # attempts to use FU when none available
system.cpu0.iq.fu_full::MemWrite                  879      1.69%     98.77% # attempts to use FU when none available
system.cpu0.iq.fu_full::FloatMemRead              350      0.67%     99.45% # attempts to use FU when none available
system.cpu0.iq.fu_full::FloatMemWrite             288      0.55%    100.00% # attempts to use FU when none available
system.cpu0.iq.fu_full::IprAccess                   0      0.00%    100.00% # attempts to use FU when none available
system.cpu0.iq.fu_full::InstPrefetch                0      0.00%    100.00% # attempts to use FU when none available
system.cpu0.iq.FU_type_0::No_OpClass            51501      0.30%      0.30% # Type of FU issued
system.cpu0.iq.FU_type_0::IntAlu             14243778     82.44%     82.74% # Type of FU issued
system.cpu0.iq.FU_type_0::IntMult                3288      0.02%     82.76% # Type of FU issued
system.cpu0.iq.FU_type_0::IntDiv                29952      0.17%     82.93% # Type of FU issued
system.cpu0.iq.FU_type_0::FloatAdd              43277      0.25%     83.18% # Type of FU issued
system.cpu0.iq.FU_type_0::FloatCmp                  0      0.00%     83.18% # Type of FU issued
system.cpu0.iq.FU_type_0::FloatCvt                  0      0.00%     83.18% # Type of FU issued
system.cpu0.iq.FU_type_0::FloatMult                 0      0.00%     83.18% # Type of FU issued
system.cpu0.iq.FU_type_0::FloatMultAcc              0      0.00%     83.18% # Type of FU issued
system.cpu0.iq.FU_type_0::FloatDiv                  0      0.00%     83.18% # Type of FU issued
system.cpu0.iq.FU_type_0::FloatMisc                 0      0.00%     83.18% # Type of FU issued
system.cpu0.iq.FU_type_0::FloatSqrt                 0      0.00%     83.18% # Type of FU issued
system.cpu0.iq.FU_type_0::SimdAdd                   0      0.00%     83.18% # Type of FU issued
system.cpu0.iq.FU_type_0::SimdAddAcc                0      0.00%     83.18% # Type of FU issued
system.cpu0.iq.FU_type_0::SimdAlu                   0      0.00%     83.18% # Type of FU issued
system.cpu0.iq.FU_type_0::SimdCmp                   0      0.00%     83.18% # Type of FU issued
system.cpu0.iq.FU_type_0::SimdCvt                   0      0.00%     83.18% # Type of FU issued
system.cpu0.iq.FU_type_0::SimdMisc                  0      0.00%     83.18% # Type of FU issued
system.cpu0.iq.FU_type_0::SimdMult                  0      0.00%     83.18% # Type of FU issued
system.cpu0.iq.FU_type_0::SimdMultAcc               0      0.00%     83.18% # Type of FU issued
system.cpu0.iq.FU_type_0::SimdShift                 0      0.00%     83.18% # Type of FU issued
system.cpu0.iq.FU_type_0::SimdShiftAcc              0      0.00%     83.18% # Type of FU issued
system.cpu0.iq.FU_type_0::SimdSqrt                  0      0.00%     83.18% # Type of FU issued
system.cpu0.iq.FU_type_0::SimdFloatAdd              0      0.00%     83.18% # Type of FU issued
system.cpu0.iq.FU_type_0::SimdFloatAlu              0      0.00%     83.18% # Type of FU issued
system.cpu0.iq.FU_type_0::SimdFloatCmp              0      0.00%     83.18% # Type of FU issued
system.cpu0.iq.FU_type_0::SimdFloatCvt              0      0.00%     83.18% # Type of FU issued
system.cpu0.iq.FU_type_0::SimdFloatDiv              0      0.00%     83.18% # Type of FU issued
system.cpu0.iq.FU_type_0::SimdFloatMisc             0      0.00%     83.18% # Type of FU issued
system.cpu0.iq.FU_type_0::SimdFloatMult             0      0.00%     83.18% # Type of FU issued
system.cpu0.iq.FU_type_0::SimdFloatMultAcc            0      0.00%     83.18% # Type of FU issued
system.cpu0.iq.FU_type_0::SimdFloatSqrt             0      0.00%     83.18% # Type of FU issued
system.cpu0.iq.FU_type_0::MemRead             2736057     15.84%     99.02% # Type of FU issued
system.cpu0.iq.FU_type_0::MemWrite             161209      0.93%     99.95% # Type of FU issued
system.cpu0.iq.FU_type_0::FloatMemRead           7730      0.04%     99.99% # Type of FU issued
system.cpu0.iq.FU_type_0::FloatMemWrite          1153      0.01%    100.00% # Type of FU issued
system.cpu0.iq.FU_type_0::IprAccess                 0      0.00%    100.00% # Type of FU issued
system.cpu0.iq.FU_type_0::InstPrefetch              0      0.00%    100.00% # Type of FU issued
system.cpu0.iq.FU_type_0::total              17277945                       # Type of FU issued
system.cpu0.iq.rate                          0.565846                       # Inst issue rate
system.cpu0.iq.fu_busy_cnt                      52045                       # FU busy when requested
system.cpu0.iq.fu_busy_rate                  0.003012                       # FU busy rate (busy events/executed inst)
system.cpu0.iq.int_inst_queue_reads          65039512                       # Number of integer instruction queue reads
system.cpu0.iq.int_inst_queue_writes         39279645                       # Number of integer instruction queue writes
system.cpu0.iq.int_inst_queue_wakeup_accesses     16534454                       # Number of integer instruction queue wakeup accesses
system.cpu0.iq.fp_inst_queue_reads             109501                       # Number of floating instruction queue reads
system.cpu0.iq.fp_inst_queue_writes            100748                       # Number of floating instruction queue writes
system.cpu0.iq.fp_inst_queue_wakeup_accesses        47574                       # Number of floating instruction queue wakeup accesses
system.cpu0.iq.vec_inst_queue_reads                 0                       # Number of vector instruction queue reads
system.cpu0.iq.vec_inst_queue_writes                0                       # Number of vector instruction queue writes
system.cpu0.iq.vec_inst_queue_wakeup_accesses            0                       # Number of vector instruction queue wakeup accesses
system.cpu0.iq.int_alu_accesses              17222158                       # Number of integer alu accesses
system.cpu0.iq.fp_alu_accesses                  56331                       # Number of floating point alu accesses
system.cpu0.iq.vec_alu_accesses                     0                       # Number of vector alu accesses
system.cpu0.iew.lsq.thread0.forwLoads           13697                       # Number of loads that had data forwarded from stores
system.cpu0.iew.lsq.thread0.invAddrLoads            0                       # Number of loads ignored due to an invalid address
system.cpu0.iew.lsq.thread0.squashedLoads      2896536                       # Number of loads squashed
system.cpu0.iew.lsq.thread0.ignoredResponses          451                       # Number of memory responses ignored because the instruction is squashed
system.cpu0.iew.lsq.thread0.memOrderViolation           14                       # Number of memory ordering violations
system.cpu0.iew.lsq.thread0.squashedStores       137470                       # Number of stores squashed
system.cpu0.iew.lsq.thread0.invAddrSwpfs            0                       # Number of software prefetches ignored due to an invalid address
system.cpu0.iew.lsq.thread0.blockedLoads            0                       # Number of blocked loads due to partial load-store forwarding
system.cpu0.iew.lsq.thread0.rescheduledLoads          104                       # Number of loads that were rescheduled
system.cpu0.iew.lsq.thread0.cacheBlocked         7494                       # Number of times an access to memory failed due to the cache being blocked
system.cpu0.iew.iewIdleCycles                       0                       # Number of cycles IEW is idle
system.cpu0.iew.iewSquashCycles                227272                       # Number of cycles IEW is squashing
system.cpu0.iew.iewBlockCycles               17440718                       # Number of cycles IEW is blocking
system.cpu0.iew.iewUnblockCycles               557649                       # Number of cycles IEW is unblocking
system.cpu0.iew.iewDispatchedInsts           24315286                       # Number of instructions dispatched to IQ
system.cpu0.iew.iewDispSquashedInsts            12255                       # Number of squashed instructions skipped by dispatch
system.cpu0.iew.iewDispLoadInsts              4657761                       # Number of dispatched load instructions
system.cpu0.iew.iewDispStoreInsts              223866                       # Number of dispatched store instructions
system.cpu0.iew.iewDispNonSpecInsts              5029                       # Number of dispatched non-speculative instructions
system.cpu0.iew.iewIQFullEvents                 38789                       # Number of times the IQ has become full, causing a stall
system.cpu0.iew.iewLSQFullEvents                37485                       # Number of times the LSQ has become full, causing a stall
system.cpu0.iew.memOrderViolationEvents            14                       # Number of memory order violations
system.cpu0.iew.predictedTakenIncorrect        121334                       # Number of branches that were predicted taken incorrectly
system.cpu0.iew.predictedNotTakenIncorrect       128462                       # Number of branches that were predicted not taken incorrectly
system.cpu0.iew.branchMispredicts              249796                       # Number of branch mispredicts detected at execute
system.cpu0.iew.iewExecutedInsts             16925502                       # Number of executed instructions
system.cpu0.iew.iewExecLoadInsts              2589197                       # Number of load instructions executed
system.cpu0.iew.iewExecSquashedInsts           352444                       # Number of squashed instructions skipped in execute
system.cpu0.iew.exec_swp                            0                       # number of swp insts executed
system.cpu0.iew.exec_nop                            0                       # number of nop insts executed
system.cpu0.iew.exec_refs                     2739176                       # number of memory reference insts executed
system.cpu0.iew.exec_branches                 2048243                       # Number of branches executed
system.cpu0.iew.exec_stores                    149979                       # Number of stores executed
system.cpu0.iew.exec_rate                    0.554304                       # Inst execution rate
system.cpu0.iew.wb_sent                      16634270                       # cumulative count of insts sent to commit
system.cpu0.iew.wb_count                     16582028                       # cumulative count of insts written-back
system.cpu0.iew.wb_producers                 12486821                       # num instructions producing a value
system.cpu0.iew.wb_consumers                 19599354                       # num instructions consuming a value
system.cpu0.iew.wb_rate                      0.543055                       # insts written-back per cycle
system.cpu0.iew.wb_fanout                    0.637104                       # average fanout of values written-back
system.cpu0.commit.commitSquashedInsts       15066031                       # The number of squashed insts skipped by commit
system.cpu0.commit.commitNonSpecStalls              1                       # The number of times commit has been forced to stall to communicate backwards
system.cpu0.commit.branchMispredicts           227264                       # The number of times a branch was mispredicted
system.cpu0.commit.committed_per_cycle::samples     28419843                       # Number of insts commited each cycle
system.cpu0.commit.committed_per_cycle::mean     0.325484                       # Number of insts commited each cycle
system.cpu0.commit.committed_per_cycle::stdev     1.013472                       # Number of insts commited each cycle
system.cpu0.commit.committed_per_cycle::underflows            0      0.00%      0.00% # Number of insts commited each cycle
system.cpu0.commit.committed_per_cycle::0     24414383     85.91%     85.91% # Number of insts commited each cycle
system.cpu0.commit.committed_per_cycle::1      1844359      6.49%     92.40% # Number of insts commited each cycle
system.cpu0.commit.committed_per_cycle::2       429613      1.51%     93.91% # Number of insts commited each cycle
system.cpu0.commit.committed_per_cycle::3      1197645      4.21%     98.12% # Number of insts commited each cycle
system.cpu0.commit.committed_per_cycle::4       220066      0.77%     98.90% # Number of insts commited each cycle
system.cpu0.commit.committed_per_cycle::5       127882      0.45%     99.35% # Number of insts commited each cycle
system.cpu0.commit.committed_per_cycle::6        20997      0.07%     99.42% # Number of insts commited each cycle
system.cpu0.commit.committed_per_cycle::7        11169      0.04%     99.46% # Number of insts commited each cycle
system.cpu0.commit.committed_per_cycle::8       153729      0.54%    100.00% # Number of insts commited each cycle
system.cpu0.commit.committed_per_cycle::overflows            0      0.00%    100.00% # Number of insts commited each cycle
system.cpu0.commit.committed_per_cycle::min_value            0                       # Number of insts commited each cycle
system.cpu0.commit.committed_per_cycle::max_value            8                       # Number of insts commited each cycle
system.cpu0.commit.committed_per_cycle::total     28419843                       # Number of insts commited each cycle
system.cpu0.commit.committedInsts             4627417                       # Number of instructions committed
system.cpu0.commit.committedOps               9250191                       # Number of ops (including micro ops) committed
system.cpu0.commit.swp_count                        0                       # Number of s/w prefetches committed
system.cpu0.commit.refs                       1847621                       # Number of memory references committed
system.cpu0.commit.loads                      1761225                       # Number of loads committed
system.cpu0.commit.membars                          0                       # Number of memory barriers committed
system.cpu0.commit.branches                   1676758                       # Number of branches committed
system.cpu0.commit.vec_insts                        0                       # Number of committed Vector instructions.
system.cpu0.commit.fp_insts                     34518                       # Number of committed floating point instructions.
system.cpu0.commit.int_insts                  9215282                       # Number of committed integer instructions.
system.cpu0.commit.function_calls               15229                       # Number of function calls committed.
system.cpu0.commit.op_class_0::No_OpClass        10410      0.11%      0.11% # Class of committed instruction
system.cpu0.commit.op_class_0::IntAlu         7336846     79.32%     79.43% # Class of committed instruction
system.cpu0.commit.op_class_0::IntMult            609      0.01%     79.43% # Class of committed instruction
system.cpu0.commit.op_class_0::IntDiv           25197      0.27%     79.71% # Class of committed instruction
system.cpu0.commit.op_class_0::FloatAdd         29508      0.32%     80.03% # Class of committed instruction
system.cpu0.commit.op_class_0::FloatCmp             0      0.00%     80.03% # Class of committed instruction
system.cpu0.commit.op_class_0::FloatCvt             0      0.00%     80.03% # Class of committed instruction
system.cpu0.commit.op_class_0::FloatMult            0      0.00%     80.03% # Class of committed instruction
system.cpu0.commit.op_class_0::FloatMultAcc            0      0.00%     80.03% # Class of committed instruction
system.cpu0.commit.op_class_0::FloatDiv             0      0.00%     80.03% # Class of committed instruction
system.cpu0.commit.op_class_0::FloatMisc            0      0.00%     80.03% # Class of committed instruction
system.cpu0.commit.op_class_0::FloatSqrt            0      0.00%     80.03% # Class of committed instruction
system.cpu0.commit.op_class_0::SimdAdd              0      0.00%     80.03% # Class of committed instruction
system.cpu0.commit.op_class_0::SimdAddAcc            0      0.00%     80.03% # Class of committed instruction
system.cpu0.commit.op_class_0::SimdAlu              0      0.00%     80.03% # Class of committed instruction
system.cpu0.commit.op_class_0::SimdCmp              0      0.00%     80.03% # Class of committed instruction
system.cpu0.commit.op_class_0::SimdCvt              0      0.00%     80.03% # Class of committed instruction
system.cpu0.commit.op_class_0::SimdMisc             0      0.00%     80.03% # Class of committed instruction
system.cpu0.commit.op_class_0::SimdMult             0      0.00%     80.03% # Class of committed instruction
system.cpu0.commit.op_class_0::SimdMultAcc            0      0.00%     80.03% # Class of committed instruction
system.cpu0.commit.op_class_0::SimdShift            0      0.00%     80.03% # Class of committed instruction
system.cpu0.commit.op_class_0::SimdShiftAcc            0      0.00%     80.03% # Class of committed instruction
system.cpu0.commit.op_class_0::SimdSqrt             0      0.00%     80.03% # Class of committed instruction
system.cpu0.commit.op_class_0::SimdFloatAdd            0      0.00%     80.03% # Class of committed instruction
system.cpu0.commit.op_class_0::SimdFloatAlu            0      0.00%     80.03% # Class of committed instruction
system.cpu0.commit.op_class_0::SimdFloatCmp            0      0.00%     80.03% # Class of committed instruction
system.cpu0.commit.op_class_0::SimdFloatCvt            0      0.00%     80.03% # Class of committed instruction
system.cpu0.commit.op_class_0::SimdFloatDiv            0      0.00%     80.03% # Class of committed instruction
system.cpu0.commit.op_class_0::SimdFloatMisc            0      0.00%     80.03% # Class of committed instruction
system.cpu0.commit.op_class_0::SimdFloatMult            0      0.00%     80.03% # Class of committed instruction
system.cpu0.commit.op_class_0::SimdFloatMultAcc            0      0.00%     80.03% # Class of committed instruction
system.cpu0.commit.op_class_0::SimdFloatSqrt            0      0.00%     80.03% # Class of committed instruction
system.cpu0.commit.op_class_0::MemRead        1756215     18.99%     99.01% # Class of committed instruction
system.cpu0.commit.op_class_0::MemWrite         86396      0.93%     99.95% # Class of committed instruction
system.cpu0.commit.op_class_0::FloatMemRead         5010      0.05%    100.00% # Class of committed instruction
system.cpu0.commit.op_class_0::FloatMemWrite            0      0.00%    100.00% # Class of committed instruction
system.cpu0.commit.op_class_0::IprAccess            0      0.00%    100.00% # Class of committed instruction
system.cpu0.commit.op_class_0::InstPrefetch            0      0.00%    100.00% # Class of committed instruction
system.cpu0.commit.op_class_0::total          9250191                       # Class of committed instruction
system.cpu0.commit.bw_lim_events               153729                       # number cycles where commit BW limit reached
system.cpu0.rob.rob_reads                    52582336                       # The number of ROB reads
system.cpu0.rob.rob_writes                   50737604                       # The number of ROB writes
system.cpu0.timesIdled                            380                       # Number of times that the entire CPU went into an idle state and unscheduled itself
system.cpu0.idleCycles                          15553                       # Total number of cycles that the CPU has spent unscheduled due to idling
system.cpu0.committedInsts                    4627417                       # Number of Instructions Simulated
system.cpu0.committedOps                      9250191                       # Number of Ops (including micro ops) Simulated
system.cpu0.cpi                              6.598646                       # CPI: Cycles Per Instruction
system.cpu0.cpi_total                        6.598646                       # CPI: Total CPI of All Threads
system.cpu0.ipc                              0.151546                       # IPC: Instructions Per Cycle
system.cpu0.ipc_total                        0.151546                       # IPC: Total IPC of All Threads
system.cpu0.int_regfile_reads                16517469                       # number of integer regfile reads
system.cpu0.int_regfile_writes               14405063                       # number of integer regfile writes
system.cpu0.fp_regfile_reads                    84749                       # number of floating regfile reads
system.cpu0.fp_regfile_writes                   42060                       # number of floating regfile writes
system.cpu0.cc_regfile_reads                 10841196                       # number of cc regfile reads
system.cpu0.cc_regfile_writes                 4531521                       # number of cc regfile writes
system.cpu0.misc_regfile_reads                9033367                       # number of misc regfile reads
system.cpu0.dcache.tags.pwrStateResidencyTicks::UNDEFINED  15267344125                       # Cumulative time (in ticks) in various power states
system.cpu0.dcache.tags.replacements           928911                       # number of replacements
system.cpu0.dcache.tags.tagsinuse                 512                       # Cycle average of tags in use
system.cpu0.dcache.tags.total_refs            1075028                       # Total number of references to valid blocks.
system.cpu0.dcache.tags.sampled_refs           928911                       # Sample count of references to valid blocks.
system.cpu0.dcache.tags.avg_refs             1.157299                       # Average number of references to valid blocks.
system.cpu0.dcache.tags.warmup_cycle                0                       # Cycle when the warmup percentage was hit.
system.cpu0.dcache.tags.occ_blocks::cpu0.data          512                       # Average occupied blocks per requestor
system.cpu0.dcache.tags.occ_percent::cpu0.data            1                       # Average percentage of cache occupancy
system.cpu0.dcache.tags.occ_percent::total            1                       # Average percentage of cache occupancy
system.cpu0.dcache.tags.occ_task_id_blocks::1024          512                       # Occupied blocks per task id
system.cpu0.dcache.tags.age_task_id_blocks_1024::0          308                       # Occupied blocks per task id
system.cpu0.dcache.tags.age_task_id_blocks_1024::1          204                       # Occupied blocks per task id
system.cpu0.dcache.tags.occ_task_id_percent::1024            1                       # Percentage of cache occupancy per task id
system.cpu0.dcache.tags.tag_accesses         11511739                       # Number of tag accesses
system.cpu0.dcache.tags.data_accesses        11511739                       # Number of data accesses
system.cpu0.dcache.pwrStateResidencyTicks::UNDEFINED  15267344125                       # Cumulative time (in ticks) in various power states
system.cpu0.dcache.ReadReq_hits::cpu0.data       993437                       # number of ReadReq hits
system.cpu0.dcache.ReadReq_hits::total         993437                       # number of ReadReq hits
system.cpu0.dcache.WriteReq_hits::cpu0.data        82538                       # number of WriteReq hits
system.cpu0.dcache.WriteReq_hits::total         82538                       # number of WriteReq hits
system.cpu0.dcache.demand_hits::cpu0.data      1075975                       # number of demand (read+write) hits
system.cpu0.dcache.demand_hits::total         1075975                       # number of demand (read+write) hits
system.cpu0.dcache.overall_hits::cpu0.data      1075975                       # number of overall hits
system.cpu0.dcache.overall_hits::total        1075975                       # number of overall hits
system.cpu0.dcache.ReadReq_misses::cpu0.data      1565874                       # number of ReadReq misses
system.cpu0.dcache.ReadReq_misses::total      1565874                       # number of ReadReq misses
system.cpu0.dcache.WriteReq_misses::cpu0.data         3858                       # number of WriteReq misses
system.cpu0.dcache.WriteReq_misses::total         3858                       # number of WriteReq misses
system.cpu0.dcache.demand_misses::cpu0.data      1569732                       # number of demand (read+write) misses
system.cpu0.dcache.demand_misses::total       1569732                       # number of demand (read+write) misses
system.cpu0.dcache.overall_misses::cpu0.data      1569732                       # number of overall misses
system.cpu0.dcache.overall_misses::total      1569732                       # number of overall misses
system.cpu0.dcache.ReadReq_miss_latency::cpu0.data  30586150500                       # number of ReadReq miss cycles
system.cpu0.dcache.ReadReq_miss_latency::total  30586150500                       # number of ReadReq miss cycles
system.cpu0.dcache.WriteReq_miss_latency::cpu0.data    163313991                       # number of WriteReq miss cycles
system.cpu0.dcache.WriteReq_miss_latency::total    163313991                       # number of WriteReq miss cycles
system.cpu0.dcache.demand_miss_latency::cpu0.data  30749464491                       # number of demand (read+write) miss cycles
system.cpu0.dcache.demand_miss_latency::total  30749464491                       # number of demand (read+write) miss cycles
system.cpu0.dcache.overall_miss_latency::cpu0.data  30749464491                       # number of overall miss cycles
system.cpu0.dcache.overall_miss_latency::total  30749464491                       # number of overall miss cycles
system.cpu0.dcache.ReadReq_accesses::cpu0.data      2559311                       # number of ReadReq accesses(hits+misses)
[...]
system.l2.demand_miss_rate::cpu0.data        0.066235                       # miss rate for demand accesses
system.l2.demand_miss_rate::total            0.066238                       # miss rate for demand accesses
system.l2.overall_miss_rate::cpu0.inst       0.200000                       # miss rate for overall accesses
system.l2.overall_miss_rate::cpu0.data       0.066235                       # miss rate for overall accesses
system.l2.overall_miss_rate::total           0.066238                       # miss rate for overall accesses
system.l2.ReadExReq_avg_miss_latency::cpu0.data 143890.625000                       # average ReadExReq miss latency
system.l2.ReadExReq_avg_miss_latency::total 143890.625000                       # average ReadExReq miss latency
system.l2.ReadCleanReq_avg_miss_latency::cpu0.inst 90833.333333                       # average ReadCleanReq miss latency
system.l2.ReadCleanReq_avg_miss_latency::total 90833.333333                       # average ReadCleanReq miss latency
system.l2.ReadSharedReq_avg_miss_latency::cpu0.data 99514.869429                       # average ReadSharedReq miss latency
system.l2.ReadSharedReq_avg_miss_latency::total 99514.869429                       # average ReadSharedReq miss latency
system.l2.demand_avg_miss_latency::cpu0.inst 90833.333333                       # average overall miss latency
system.l2.demand_avg_miss_latency::cpu0.data 100114.941408                       # average overall miss latency
system.l2.demand_avg_miss_latency::total 100114.488867                       # average overall miss latency
system.l2.overall_avg_miss_latency::cpu0.inst 90833.333333                       # average overall miss latency
system.l2.overall_avg_miss_latency::cpu0.data 100114.941408                       # average overall miss latency
system.l2.overall_avg_miss_latency::total 100114.488867                       # average overall miss latency
system.l2.blocked_cycles::no_mshrs                  0                       # number of cycles access was blocked
system.l2.blocked_cycles::no_targets                0                       # number of cycles access was blocked
system.l2.blocked::no_mshrs                         0                       # number of cycles access was blocked
system.l2.blocked::no_targets                       0                       # number of cycles access was blocked
system.l2.avg_blocked_cycles::no_mshrs            nan                       # average number of cycles each access was blocked
system.l2.avg_blocked_cycles::no_targets          nan                       # average number of cycles each access was blocked
system.l2.writebacks::writebacks                 5102                       # number of writebacks
system.l2.writebacks::total                      5102                       # number of writebacks
system.l2.ReadExReq_mshr_misses::cpu0.data          832                       # number of ReadExReq MSHR misses
system.l2.ReadExReq_mshr_misses::total            832                       # number of ReadExReq MSHR misses
system.l2.ReadCleanReq_mshr_misses::cpu0.inst            3                       # number of ReadCleanReq MSHR misses
system.l2.ReadCleanReq_mshr_misses::total            3                       # number of ReadCleanReq MSHR misses
system.l2.ReadSharedReq_mshr_misses::cpu0.data        60695                       # number of ReadSharedReq MSHR misses
system.l2.ReadSharedReq_mshr_misses::total        60695                       # number of ReadSharedReq MSHR misses
system.l2.demand_mshr_misses::cpu0.inst             3                       # number of demand (read+write) MSHR misses
system.l2.demand_mshr_misses::cpu0.data         61527                       # number of demand (read+write) MSHR misses
system.l2.demand_mshr_misses::total             61530                       # number of demand (read+write) MSHR misses
system.l2.overall_mshr_misses::cpu0.inst            3                       # number of overall MSHR misses
system.l2.overall_mshr_misses::cpu0.data        61527                       # number of overall MSHR misses
system.l2.overall_mshr_misses::total            61530                       # number of overall MSHR misses
system.l2.ReadExReq_mshr_miss_latency::cpu0.data    111397000                       # number of ReadExReq MSHR miss cycles
system.l2.ReadExReq_mshr_miss_latency::total    111397000                       # number of ReadExReq MSHR miss cycles
system.l2.ReadCleanReq_mshr_miss_latency::cpu0.inst       242500                       # number of ReadCleanReq MSHR miss cycles
system.l2.ReadCleanReq_mshr_miss_latency::total       242500                       # number of ReadCleanReq MSHR miss cycles
system.l2.ReadSharedReq_mshr_miss_latency::cpu0.data   5433125000                       # number of ReadSharedReq MSHR miss cycles
system.l2.ReadSharedReq_mshr_miss_latency::total   5433125000                       # number of ReadSharedReq MSHR miss cycles
system.l2.demand_mshr_miss_latency::cpu0.inst       242500                       # number of demand (read+write) MSHR miss cycles
system.l2.demand_mshr_miss_latency::cpu0.data   5544522000                       # number of demand (read+write) MSHR miss cycles
system.l2.demand_mshr_miss_latency::total   5544764500                       # number of demand (read+write) MSHR miss cycles
system.l2.overall_mshr_miss_latency::cpu0.inst       242500                       # number of overall MSHR miss cycles
system.l2.overall_mshr_miss_latency::cpu0.data   5544522000                       # number of overall MSHR miss cycles
system.l2.overall_mshr_miss_latency::total   5544764500                       # number of overall MSHR miss cycles
system.l2.ReadExReq_mshr_miss_rate::cpu0.data     0.216723                       # mshr miss rate for ReadExReq accesses
system.l2.ReadExReq_mshr_miss_rate::total     0.216723                       # mshr miss rate for ReadExReq accesses
system.l2.ReadCleanReq_mshr_miss_rate::cpu0.inst     0.200000                       # mshr miss rate for ReadCleanReq accesses
system.l2.ReadCleanReq_mshr_miss_rate::total     0.200000                       # mshr miss rate for ReadCleanReq accesses
system.l2.ReadSharedReq_mshr_miss_rate::cpu0.data     0.065611                       # mshr miss rate for ReadSharedReq accesses
system.l2.ReadSharedReq_mshr_miss_rate::total     0.065611                       # mshr miss rate for ReadSharedReq accesses
system.l2.demand_mshr_miss_rate::cpu0.inst     0.200000                       # mshr miss rate for demand accesses
system.l2.demand_mshr_miss_rate::cpu0.data     0.066235                       # mshr miss rate for demand accesses
system.l2.demand_mshr_miss_rate::total       0.066238                       # mshr miss rate for demand accesses
system.l2.overall_mshr_miss_rate::cpu0.inst     0.200000                       # mshr miss rate for overall accesses
system.l2.overall_mshr_miss_rate::cpu0.data     0.066235                       # mshr miss rate for overall accesses
system.l2.overall_mshr_miss_rate::total      0.066238                       # mshr miss rate for overall accesses
system.l2.ReadExReq_avg_mshr_miss_latency::cpu0.data 133890.625000                       # average ReadExReq mshr miss latency
system.l2.ReadExReq_avg_mshr_miss_latency::total 133890.625000                       # average ReadExReq mshr miss latency
system.l2.ReadCleanReq_avg_mshr_miss_latency::cpu0.inst 80833.333333                       # average ReadCleanReq mshr miss latency
system.l2.ReadCleanReq_avg_mshr_miss_latency::total 80833.333333                       # average ReadCleanReq mshr miss latency
system.l2.ReadSharedReq_avg_mshr_miss_latency::cpu0.data 89515.198946                       # average ReadSharedReq mshr miss latency
system.l2.ReadSharedReq_avg_mshr_miss_latency::total 89515.198946                       # average ReadSharedReq mshr miss latency
system.l2.demand_avg_mshr_miss_latency::cpu0.inst 80833.333333                       # average overall mshr miss latency
system.l2.demand_avg_mshr_miss_latency::cpu0.data 90115.266468                       # average overall mshr miss latency
system.l2.demand_avg_mshr_miss_latency::total 90114.813912                       # average overall mshr miss latency
system.l2.overall_avg_mshr_miss_latency::cpu0.inst 80833.333333                       # average overall mshr miss latency
system.l2.overall_avg_mshr_miss_latency::cpu0.data 90115.266468                       # average overall mshr miss latency
system.l2.overall_avg_mshr_miss_latency::total 90114.813912                       # average overall mshr miss latency
system.membus.snoop_filter.tot_requests        123058                       # Total number of requests made to the snoop filter.
system.membus.snoop_filter.hit_single_requests        61528                       # Number of requests hitting in the snoop filter with a single holder of the requested data.
system.membus.snoop_filter.hit_multi_requests            0                       # Number of requests hitting in the snoop filter with multiple (>1) holders of the requested data.
system.membus.snoop_filter.tot_snoops               0                       # Total number of snoops made to the snoop filter.
system.membus.snoop_filter.hit_single_snoops            0                       # Number of snoops hitting in the snoop filter with a single holder of the requested data.
system.membus.snoop_filter.hit_multi_snoops            0                       # Number of snoops hitting in the snoop filter with multiple (>1) holders of the requested data.
system.membus.pwrStateResidencyTicks::UNDEFINED  15267344125                       # Cumulative time (in ticks) in various power states
system.membus.trans_dist::ReadResp              60696                       # Transaction distribution
system.membus.trans_dist::WritebackDirty         5102                       # Transaction distribution
system.membus.trans_dist::CleanEvict            56426                       # Transaction distribution
system.membus.trans_dist::ReadExReq               832                       # Transaction distribution
system.membus.trans_dist::ReadExResp              832                       # Transaction distribution
system.membus.trans_dist::ReadSharedReq         60698                       # Transaction distribution
system.membus.pkt_count_system.l2.mem_side::system.mem_ctrls.port       184586                       # Packet count per connected master and slave (bytes)
system.membus.pkt_count_system.l2.mem_side::total       184586                       # Packet count per connected master and slave (bytes)
system.membus.pkt_count::total                 184586                       # Packet count per connected master and slave (bytes)
system.membus.pkt_size_system.l2.mem_side::system.mem_ctrls.port      4264320                       # Cumulative packet size per connected master and slave (bytes)
system.membus.pkt_size_system.l2.mem_side::total      4264320                       # Cumulative packet size per connected master and slave (bytes)
system.membus.pkt_size::total                 4264320                       # Cumulative packet size per connected master and slave (bytes)
system.membus.snoops                                0                       # Total snoops (count)
system.membus.snoopTraffic                          0                       # Total snoop traffic (bytes)
system.membus.snoop_fanout::samples             61530                       # Request fanout histogram
system.membus.snoop_fanout::mean                    0                       # Request fanout histogram
system.membus.snoop_fanout::stdev                   0                       # Request fanout histogram
system.membus.snoop_fanout::underflows              0      0.00%      0.00% # Request fanout histogram
system.membus.snoop_fanout::0                   61530    100.00%    100.00% # Request fanout histogram
system.membus.snoop_fanout::1                       0      0.00%    100.00% # Request fanout histogram
system.membus.snoop_fanout::overflows               0      0.00%    100.00% # Request fanout histogram
system.membus.snoop_fanout::min_value               0                       # Request fanout histogram
system.membus.snoop_fanout::max_value               0                       # Request fanout histogram
system.membus.snoop_fanout::total               61530                       # Request fanout histogram
system.membus.reqLayer12.occupancy          161048000                       # Layer occupancy (ticks)
system.membus.reqLayer12.utilization              1.1                       # Layer utilization (%)
system.membus.respLayer1.occupancy          337996500                       # Layer occupancy (ticks)
system.membus.respLayer1.utilization              2.2                       # Layer utilization (%)
system.tol2bus.snoop_filter.tot_requests      1857854                       # Total number of requests made to the snoop filter.
system.tol2bus.snoop_filter.hit_single_requests       928929                       # Number of requests hitting in the snoop filter with a single holder of the requested data.
system.tol2bus.snoop_filter.hit_multi_requests         2047                       # Number of requests hitting in the snoop filter with multiple (>1) holders of the requested data.
system.tol2bus.snoop_filter.tot_snoops              7                       # Total number of snoops made to the snoop filter.
system.tol2bus.snoop_filter.hit_single_snoops            7                       # Number of snoops hitting in the snoop filter with a single holder of the requested data.
system.tol2bus.snoop_filter.hit_multi_snoops            0                       # Number of snoops hitting in the snoop filter with multiple (>1) holders of the requested data.
system.tol2bus.pwrStateResidencyTicks::UNDEFINED  15267344125                       # Cumulative time (in ticks) in various power states
system.tol2bus.trans_dist::ReadResp            925087                       # Transaction distribution
system.tol2bus.trans_dist::WritebackDirty       309780                       # Transaction distribution
system.tol2bus.trans_dist::WritebackClean           15                       # Transaction distribution
system.tol2bus.trans_dist::CleanEvict          680666                       # Transaction distribution
system.tol2bus.trans_dist::ReadExReq             3839                       # Transaction distribution
system.tol2bus.trans_dist::ReadExResp            3839                       # Transaction distribution
system.tol2bus.trans_dist::ReadCleanReq            15                       # Transaction distribution
system.tol2bus.trans_dist::ReadSharedReq       925074                       # Transaction distribution
system.tol2bus.pkt_count_system.cpu0.icache.mem_side::system.l2.cpu_side           45                       # Packet count per connected master and slave (bytes)
system.tol2bus.pkt_count_system.cpu0.dcache.mem_side::system.l2.cpu_side      2786735                       # Packet count per connected master and slave (bytes)
system.tol2bus.pkt_count::total               2786780                       # Packet count per connected master and slave (bytes)
system.tol2bus.pkt_size_system.cpu0.icache.mem_side::system.l2.cpu_side         1920                       # Cumulative packet size per connected master and slave (bytes)
system.tol2bus.pkt_size_system.cpu0.dcache.mem_side::system.l2.cpu_side     78949696                       # Cumulative packet size per connected master and slave (bytes)
system.tol2bus.pkt_size::total               78951616                       # Cumulative packet size per connected master and slave (bytes)
system.tol2bus.snoops                           61535                       # Total snoops (count)
system.tol2bus.snoopTraffic                    326528                       # Total snoop traffic (bytes)
system.tol2bus.snoop_fanout::samples           990463                       # Request fanout histogram
system.tol2bus.snoop_fanout::mean            0.002077                       # Request fanout histogram
system.tol2bus.snoop_fanout::stdev           0.045525                       # Request fanout histogram
system.tol2bus.snoop_fanout::underflows             0      0.00%      0.00% # Request fanout histogram
system.tol2bus.snoop_fanout::0                 988406     99.79%     99.79% # Request fanout histogram
system.tol2bus.snoop_fanout::1                   2057      0.21%    100.00% # Request fanout histogram
system.tol2bus.snoop_fanout::2                      0      0.00%    100.00% # Request fanout histogram
system.tol2bus.snoop_fanout::3                      0      0.00%    100.00% # Request fanout histogram
system.tol2bus.snoop_fanout::4                      0      0.00%    100.00% # Request fanout histogram
system.tol2bus.snoop_fanout::5                      0      0.00%    100.00% # Request fanout histogram
system.tol2bus.snoop_fanout::6                      0      0.00%    100.00% # Request fanout histogram
system.tol2bus.snoop_fanout::7                      0      0.00%    100.00% # Request fanout histogram
system.tol2bus.snoop_fanout::8                      0      0.00%    100.00% # Request fanout histogram
system.tol2bus.snoop_fanout::9                      0      0.00%    100.00% # Request fanout histogram
system.tol2bus.snoop_fanout::10                     0      0.00%    100.00% # Request fanout histogram
system.tol2bus.snoop_fanout::11                     0      0.00%    100.00% # Request fanout histogram
system.tol2bus.snoop_fanout::12                     0      0.00%    100.00% # Request fanout histogram
system.tol2bus.snoop_fanout::13                     0      0.00%    100.00% # Request fanout histogram
system.tol2bus.snoop_fanout::14                     0      0.00%    100.00% # Request fanout histogram
system.tol2bus.snoop_fanout::15                     0      0.00%    100.00% # Request fanout histogram
system.tol2bus.snoop_fanout::16                     0      0.00%    100.00% # Request fanout histogram
system.tol2bus.snoop_fanout::17                     0      0.00%    100.00% # Request fanout histogram
system.tol2bus.snoop_fanout::18                     0      0.00%    100.00% # Request fanout histogram
system.tol2bus.snoop_fanout::19                     0      0.00%    100.00% # Request fanout histogram
system.tol2bus.snoop_fanout::20                     0      0.00%    100.00% # Request fanout histogram
system.tol2bus.snoop_fanout::21                     0      0.00%    100.00% # Request fanout histogram
system.tol2bus.snoop_fanout::22                     0      0.00%    100.00% # Request fanout histogram
system.tol2bus.snoop_fanout::23                     0      0.00%    100.00% # Request fanout histogram
system.tol2bus.snoop_fanout::24                     0      0.00%    100.00% # Request fanout histogram
system.tol2bus.snoop_fanout::overflows              0      0.00%    100.00% # Request fanout histogram
system.tol2bus.snoop_fanout::min_value              0                       # Request fanout histogram
system.tol2bus.snoop_fanout::max_value              1                       # Request fanout histogram
system.tol2bus.snoop_fanout::total             990463                       # Request fanout histogram
system.tol2bus.reqLayer0.occupancy         1233620000                       # Layer occupancy (ticks)
system.tol2bus.reqLayer0.utilization              8.1                       # Layer utilization (%)
system.tol2bus.respLayer0.occupancy             22500                       # Layer occupancy (ticks)
system.tol2bus.respLayer0.utilization             0.0                       # Layer utilization (%)
system.tol2bus.respLayer1.occupancy        1393366500                       # Layer occupancy (ticks)
system.tol2bus.respLayer1.utilization             9.1                       # Layer utilization (%)

---------- End Simulation Statistics   ----------
