
---------- Begin Simulation Statistics ----------
sim_seconds                                  0.015267                       # Number of seconds simulated
sim_ticks                                 15267344125                       # Number of ticks simulated
final_tick                               3740499310625                       # Number of ticks from beginning of simulation (restored from checkpoints and never reset)
sim_freq                                 1000000000000                       # Frequency of simulated ticks
host_inst_rate                               65275101                       # Simulator instruction rate (inst/s)
host_op_rate                                121506814                       # Simulator op (including micro ops) rate (op/s)
host_tick_rate                              168162285                       # Simulator tick rate (ticks/s)
host_mem_usage                                3428912                       # Number of bytes of host memory used
host_seconds                                    90.79                       # Real time elapsed on the host
sim_insts                                  5926281447                       # Number of instructions simulated
sim_ops                                   11031522338                       # Number of ops (including micro ops) simulated
system.voltage_domain.voltage                       1                       # Voltage in Volts
system.clk_domain.clock                          1000                       # Clock period in ticks
system.mem_ctrls.pwrStateResidencyTicks::UNDEFINED  15267344125                       # Cumulative time (in ticks) in various power states
system.mem_ctrls.bytes_read::cpu0.inst            384                       # Number of bytes read from this memory
system.mem_ctrls.bytes_read::cpu0.data        4785728                       # Number of bytes read from this memory
system.mem_ctrls.bytes_read::total            4786112                       # Number of bytes read from this memory
system.mem_ctrls.bytes_inst_read::cpu0.inst          384                       # Number of instructions bytes read from this memory
system.mem_ctrls.bytes_inst_read::total           384                       # Number of instructions bytes read from this memory
system.mem_ctrls.bytes_written::writebacks       309056                       # Number of bytes written to this memory
system.mem_ctrls.bytes_written::total          309056                       # Number of bytes written to this memory
system.mem_ctrls.num_reads::cpu0.inst               6                       # Number of read requests responded to by this memory
system.mem_ctrls.num_reads::cpu0.data           74777                       # Number of read requests responded to by this memory
system.mem_ctrls.num_reads::total               74783                       # Number of read requests responded to by this memory
system.mem_ctrls.num_writes::writebacks          4829                       # Number of write requests responded to by this memory
system.mem_ctrls.num_writes::total               4829                       # Number of write requests responded to by this memory
system.mem_ctrls.bw_read::cpu0.inst             25152                       # Total read bandwidth from this memory (bytes/s)
system.mem_ctrls.bw_read::cpu0.data         313461723                       # Total read bandwidth from this memory (bytes/s)
system.mem_ctrls.bw_read::total             313486875                       # Total read bandwidth from this memory (bytes/s)
system.mem_ctrls.bw_inst_read::cpu0.inst        25152                       # Instruction read bandwidth from this memory (bytes/s)
system.mem_ctrls.bw_inst_read::total            25152                       # Instruction read bandwidth from this memory (bytes/s)
system.mem_ctrls.bw_write::writebacks        20242945                       # Write bandwidth from this memory (bytes/s)
system.mem_ctrls.bw_write::total             20242945                       # Write bandwidth from this memory (bytes/s)
system.mem_ctrls.bw_total::writebacks        20242945                       # Total bandwidth to/from this memory (bytes/s)
system.mem_ctrls.bw_total::cpu0.inst            25152                       # Total bandwidth to/from this memory (bytes/s)
system.mem_ctrls.bw_total::cpu0.data        313461723                       # Total bandwidth to/from this memory (bytes/s)
system.mem_ctrls.bw_total::total            333729820                       # Total bandwidth to/from this memory (bytes/s)
system.mem_ctrls.readReqs                       74783                       # Number of read requests accepted
system.mem_ctrls.writeReqs                       4829                       # Number of write requests accepted
system.mem_ctrls.readBursts                     74783                       # Number of DRAM read bursts, including those serviced by the write queue
system.mem_ctrls.writeBursts                     4829                       # Number of DRAM write bursts, including those merged in the write queue
system.mem_ctrls.bytesReadDRAM                4772416                       # Total number of bytes read from DRAM
system.mem_ctrls.bytesReadWrQ                   13696                       # Total number of bytes read from write queue
system.mem_ctrls.bytesWritten                  309376                       # Total number of bytes written to DRAM
system.mem_ctrls.bytesReadSys                 4786112                       # Total read bytes from the system interface side
system.mem_ctrls.bytesWrittenSys               309056                       # Total written bytes from the system interface side
system.mem_ctrls.servicedByWrQ                    214                       # Number of DRAM read bursts serviced by the write queue
system.mem_ctrls.mergedWrBursts                     0                       # Number of DRAM write bursts merged with an existing one
system.mem_ctrls.neitherReadNorWriteReqs            0                       # Number of requests that are neither read nor write
system.mem_ctrls.perBankRdBursts::0              4688                       # Per bank write bursts
system.mem_ctrls.perBankRdBursts::1              4522                       # Per bank write bursts
system.mem_ctrls.perBankRdBursts::2              4647                       # Per bank write bursts
system.mem_ctrls.perBankRdBursts::3              4308                       # Per bank write bursts
system.mem_ctrls.perBankRdBursts::4              4345                       # Per bank write bursts
system.mem_ctrls.perBankRdBursts::5              4308                       # Per bank write bursts
system.mem_ctrls.perBankRdBursts::6              4409                       # Per bank write bursts
system.mem_ctrls.perBankRdBursts::7              4530                       # Per bank write bursts
system.mem_ctrls.perBankRdBursts::8              4162                       # Per bank write bursts
system.mem_ctrls.perBankRdBursts::9              3865                       # Per bank write bursts
system.mem_ctrls.perBankRdBursts::10             3934                       # Per bank write bursts
system.mem_ctrls.perBankRdBursts::11             3917                       # Per bank write bursts
system.mem_ctrls.perBankRdBursts::12             5641                       # Per bank write bursts
system.mem_ctrls.perBankRdBursts::13             5882                       # Per bank write bursts
system.mem_ctrls.perBankRdBursts::14             5793                       # Per bank write bursts
system.mem_ctrls.perBankRdBursts::15             5618                       # Per bank write bursts
system.mem_ctrls.perBankWrBursts::0               505                       # Per bank write bursts
system.mem_ctrls.perBankWrBursts::1               424                       # Per bank write bursts
system.mem_ctrls.perBankWrBursts::2               440                       # Per bank write bursts
system.mem_ctrls.perBankWrBursts::3               277                       # Per bank write bursts
system.mem_ctrls.perBankWrBursts::4               183                       # Per bank write bursts
system.mem_ctrls.perBankWrBursts::5               132                       # Per bank write bursts
system.mem_ctrls.perBankWrBursts::6               160                       # Per bank write bursts
system.mem_ctrls.perBankWrBursts::7               305                       # Per bank write bursts
system.mem_ctrls.perBankWrBursts::8               203                       # Per bank write bursts
system.mem_ctrls.perBankWrBursts::9               175                       # Per bank write bursts
system.mem_ctrls.perBankWrBursts::10              194                       # Per bank write bursts
system.mem_ctrls.perBankWrBursts::11              229                       # Per bank write bursts
system.mem_ctrls.perBankWrBursts::12              310                       # Per bank write bursts
system.mem_ctrls.perBankWrBursts::13              338                       # Per bank write bursts
system.mem_ctrls.perBankWrBursts::14              506                       # Per bank write bursts
system.mem_ctrls.perBankWrBursts::15              453                       # Per bank write bursts
system.mem_ctrls.numRdRetry                         0                       # Number of times read queue was full causing retry
system.mem_ctrls.numWrRetry                         0                       # Number of times write queue was full causing retry
system.mem_ctrls.totGap                   15269956000                       # Total gap between requests
system.mem_ctrls.readPktSize::0                     0                       # Read request sizes (log2)
system.mem_ctrls.readPktSize::1                     0                       # Read request sizes (log2)
system.mem_ctrls.readPktSize::2                     0                       # Read request sizes (log2)
system.mem_ctrls.readPktSize::3                     0                       # Read request sizes (log2)
system.mem_ctrls.readPktSize::4                     0                       # Read request sizes (log2)
system.mem_ctrls.readPktSize::5                     0                       # Read request sizes (log2)
system.mem_ctrls.readPktSize::6                 74783                       # Read request sizes (log2)
system.mem_ctrls.writePktSize::0                    0                       # Write request sizes (log2)
system.mem_ctrls.writePktSize::1                    0                       # Write request sizes (log2)
system.mem_ctrls.writePktSize::2                    0                       # Write request sizes (log2)
system.mem_ctrls.writePktSize::3                    0                       # Write request sizes (log2)
system.mem_ctrls.writePktSize::4                    0                       # Write request sizes (log2)
system.mem_ctrls.writePktSize::5                    0                       # Write request sizes (log2)
system.mem_ctrls.writePktSize::6                 4829                       # Write request sizes (log2)
system.mem_ctrls.rdQLenPdf::0                   61179                       # What read queue length does an incoming req see
system.mem_ctrls.rdQLenPdf::1                   12299                       # What read queue length does an incoming req see
system.mem_ctrls.rdQLenPdf::2                    1036                       # What read queue length does an incoming req see
system.mem_ctrls.rdQLenPdf::3                      55                       # What read queue length does an incoming req see
system.mem_ctrls.rdQLenPdf::4                       0                       # What read queue length does an incoming req see
system.mem_ctrls.rdQLenPdf::5                       0                       # What read queue length does an incoming req see
system.mem_ctrls.rdQLenPdf::6                       0                       # What read queue length does an incoming req see
system.mem_ctrls.rdQLenPdf::7                       0                       # What read queue length does an incoming req see
system.mem_ctrls.rdQLenPdf::8                       0                       # What read queue length does an incoming req see
system.mem_ctrls.rdQLenPdf::9                       0                       # What read queue length does an incoming req see
system.mem_ctrls.rdQLenPdf::10                      0                       # What read queue length does an incoming req see
system.mem_ctrls.rdQLenPdf::11                      0                       # What read queue length does an incoming req see
system.mem_ctrls.rdQLenPdf::12                      0                       # What read queue length does an incoming req see
system.mem_ctrls.rdQLenPdf::13                      0                       # What read queue length does an incoming req see
system.mem_ctrls.rdQLenPdf::14                      0                       # What read queue length does an incoming req see
system.mem_ctrls.rdQLenPdf::15                      0                       # What read queue length does an incoming req see
system.mem_ctrls.rdQLenPdf::16                      0                       # What read queue length does an incoming req see
system.mem_ctrls.rdQLenPdf::17                      0                       # What read queue length does an incoming req see
system.mem_ctrls.rdQLenPdf::18                      0                       # What read queue length does an incoming req see
system.mem_ctrls.rdQLenPdf::19                      0                       # What read queue length does an incoming req see
system.mem_ctrls.rdQLenPdf::20                      0                       # What read queue length does an incoming req see
system.mem_ctrls.rdQLenPdf::21                      0                       # What read queue length does an incoming req see
system.mem_ctrls.rdQLenPdf::22                      0                       # What read queue length does an incoming req see
system.mem_ctrls.rdQLenPdf::23                      0                       # What read queue length does an incoming req see
system.mem_ctrls.rdQLenPdf::24                      0                       # What read queue length does an incoming req see
system.mem_ctrls.rdQLenPdf::25                      0                       # What read queue length does an incoming req see
system.mem_ctrls.rdQLenPdf::26                      0                       # What read queue length does an incoming req see
system.mem_ctrls.rdQLenPdf::27                      0                       # What read queue length does an incoming req see
system.mem_ctrls.rdQLenPdf::28                      0                       # What read queue length does an incoming req see
system.mem_ctrls.rdQLenPdf::29                      0                       # What read queue length does an incoming req see
system.mem_ctrls.rdQLenPdf::30                      0                       # What read queue length does an incoming req see
system.mem_ctrls.rdQLenPdf::31                      0                       # What read queue length does an incoming req see
system.mem_ctrls.wrQLenPdf::0                       0                       # What write queue length does an incoming req see
system.mem_ctrls.wrQLenPdf::1                       0                       # What write queue length does an incoming req see
system.mem_ctrls.wrQLenPdf::2                       0                       # What write queue length does an incoming req see
system.mem_ctrls.wrQLenPdf::3                       0                       # What write queue length does an incoming req see
system.mem_ctrls.wrQLenPdf::4                       0                       # What write queue length does an incoming req see
system.mem_ctrls.wrQLenPdf::5                       0                       # What write queue length does an incoming req see
system.mem_ctrls.wrQLenPdf::6                       0                       # What write queue length does an incoming req see
system.mem_ctrls.wrQLenPdf::7                       0                       # What write queue length does an incoming req see
system.mem_ctrls.wrQLenPdf::8                       0                       # What write queue length does an incoming req see
system.mem_ctrls.wrQLenPdf::9                       0                       # What write queue length does an incoming req see
system.mem_ctrls.wrQLenPdf::10                      0                       # What write queue length does an incoming req see
system.mem_ctrls.wrQLenPdf::11                      0                       # What write queue length does an incoming req see
system.mem_ctrls.wrQLenPdf::12                      0                       # What write queue length does an incoming req see
system.mem_ctrls.wrQLenPdf::13                      0                       # What write queue length does an incoming req see
system.mem_ctrls.wrQLenPdf::14                      0                       # What write queue length does an incoming req see
system.mem_ctrls.wrQLenPdf::15                     71                       # What write queue length does an incoming req see
system.mem_ctrls.wrQLenPdf::16                     73                       # What write queue length does an incoming req see
system.mem_ctrls.wrQLenPdf::17                    277                       # What write queue length does an incoming req see
system.mem_ctrls.wrQLenPdf::18                    291                       # What write queue length does an incoming req see
system.mem_ctrls.wrQLenPdf::19                    292                       # What write queue length does an incoming req see
system.mem_ctrls.wrQLenPdf::20                    292                       # What write queue length does an incoming req see
system.mem_ctrls.wrQLenPdf::21                    292                       # What write queue length does an incoming req see
system.mem_ctrls.wrQLenPdf::22                    292                       # What write queue length does an incoming req see
system.mem_ctrls.wrQLenPdf::23                    293                       # What write queue length does an incoming req see
system.mem_ctrls.wrQLenPdf::24                    295                       # What write queue length does an incoming req see
system.mem_ctrls.wrQLenPdf::25                    293                       # What write queue length does an incoming req see
system.mem_ctrls.wrQLenPdf::26                    293                       # What write queue length does an incoming req see
system.mem_ctrls.wrQLenPdf::27                    293                       # What write queue length does an incoming req see
system.mem_ctrls.wrQLenPdf::28                    296                       # What write queue length does an incoming req see
system.mem_ctrls.wrQLenPdf::29                    298                       # What write queue length does an incoming req see
system.mem_ctrls.wrQLenPdf::30                    296                       # What write queue length does an incoming req see
system.mem_ctrls.wrQLenPdf::31                    298                       # What write queue length does an incoming req see
system.mem_ctrls.wrQLenPdf::32                    294                       # What write queue length does an incoming req see
system.mem_ctrls.wrQLenPdf::33                      0                       # What write queue length does an incoming req see
system.mem_ctrls.wrQLenPdf::34                      0                       # What write queue length does an incoming req see
system.mem_ctrls.wrQLenPdf::35                      0                       # What write queue length does an incoming req see
system.mem_ctrls.wrQLenPdf::36                      0                       # What write queue length does an incoming req see
system.mem_ctrls.wrQLenPdf::37                      0                       # What write queue length does an incoming req see
system.mem_ctrls.wrQLenPdf::38                      0                       # What write queue length does an incoming req see
system.mem_ctrls.wrQLenPdf::39                      0                       # What write queue length does an incoming req see
system.mem_ctrls.wrQLenPdf::40                      0                       # What write queue length does an incoming req see
system.mem_ctrls.wrQLenPdf::41                      0                       # What write queue length does an incoming req see
system.mem_ctrls.wrQLenPdf::42                      0                       # What write queue length does an incoming req see
system.mem_ctrls.wrQLenPdf::43                      0                       # What write queue length does an incoming req see
system.mem_ctrls.wrQLenPdf::44                      0                       # What write queue length does an incoming req see
system.mem_ctrls.wrQLenPdf::45                      0                       # What write queue length does an incoming req see
system.mem_ctrls.wrQLenPdf::46                      0                       # What write queue length does an incoming req see
system.mem_ctrls.wrQLenPdf::47                      0                       # What write queue length does an incoming req see
system.mem_ctrls.wrQLenPdf::48                      0                       # What write queue length does an incoming req see
system.mem_ctrls.wrQLenPdf::49                      0                       # What write queue length does an incoming req see
system.mem_ctrls.wrQLenPdf::50                      0                       # What write queue length does an incoming req see
system.mem_ctrls.wrQLenPdf::51                      0                       # What write queue length does an incoming req see
system.mem_ctrls.wrQLenPdf::52                      0                       # What write queue length does an incoming req see
system.mem_ctrls.wrQLenPdf::53                      0                       # What write queue length does an incoming req see
system.mem_ctrls.wrQLenPdf::54                      0                       # What write queue length does an incoming req see
system.mem_ctrls.wrQLenPdf::55                      0                       # What write queue length does an incoming req see
system.mem_ctrls.wrQLenPdf::56                      0                       # What write queue length does an incoming req see
system.mem_ctrls.wrQLenPdf::57                      0                       # What write queue length does an incoming req see
system.mem_ctrls.wrQLenPdf::58                      0                       # What write queue length does an incoming req see
system.mem_ctrls.wrQLenPdf::59                      0                       # What write queue length does an incoming req see
system.mem_ctrls.wrQLenPdf::60                      0                       # What write queue length does an incoming req see
system.mem_ctrls.wrQLenPdf::61                      0                       # What write queue length does an incoming req see
system.mem_ctrls.wrQLenPdf::62                      0                       # What write queue length does an incoming req see
system.mem_ctrls.wrQLenPdf::63                      0                       # What write queue length does an incoming req see
system.mem_ctrls.bytesPerActivate::samples        57181                       # Bytes accessed per row activation
system.mem_ctrls.bytesPerActivate::mean     88.860845                       # Bytes accessed per row activation
system.mem_ctrls.bytesPerActivate::gmean    80.822779                       # Bytes accessed per row activation
system.mem_ctrls.bytesPerActivate::stdev    47.156859                       # Bytes accessed per row activation
system.mem_ctrls.bytesPerActivate::64-127        41243     72.13%     72.13% # Bytes accessed per row activation
system.mem_ctrls.bytesPerActivate::128-191        11430     19.99%     92.12% # Bytes accessed per row activation
system.mem_ctrls.bytesPerActivate::192-255         3227      5.64%     97.76% # Bytes accessed per row activation
system.mem_ctrls.bytesPerActivate::256-319          934      1.63%     99.39% # Bytes accessed per row activation
system.mem_ctrls.bytesPerActivate::320-383          252      0.44%     99.83% # Bytes accessed per row activation
system.mem_ctrls.bytesPerActivate::384-447           69      0.12%     99.95% # Bytes accessed per row activation
system.mem_ctrls.bytesPerActivate::448-511           15      0.03%     99.98% # Bytes accessed per row activation
system.mem_ctrls.bytesPerActivate::512-575            6      0.01%     99.99% # Bytes accessed per row activation
system.mem_ctrls.bytesPerActivate::576-639            4      0.01%    100.00% # Bytes accessed per row activation
system.mem_ctrls.bytesPerActivate::640-703            1      0.00%    100.00% # Bytes accessed per row activation
system.mem_ctrls.bytesPerActivate::total        57181                       # Bytes accessed per row activation
system.mem_ctrls.rdPerTurnAround::samples          293                       # Reads before turning the bus around for writes
system.mem_ctrls.rdPerTurnAround::mean     254.634812                       # Reads before turning the bus around for writes
system.mem_ctrls.rdPerTurnAround::gmean    245.035952                       # Reads before turning the bus around for writes
system.mem_ctrls.rdPerTurnAround::stdev     70.213664                       # Reads before turning the bus around for writes
system.mem_ctrls.rdPerTurnAround::96-127            6      2.05%      2.05% # Reads before turning the bus around for writes
system.mem_ctrls.rdPerTurnAround::128-159           12      4.10%      6.14% # Reads before turning the bus around for writes
system.mem_ctrls.rdPerTurnAround::160-191           37     12.63%     18.77% # Reads before turning the bus around for writes
system.mem_ctrls.rdPerTurnAround::192-223           44     15.02%     33.79% # Reads before turning the bus around for writes
system.mem_ctrls.rdPerTurnAround::224-255           58     19.80%     53.58% # Reads before turning the bus around for writes
system.mem_ctrls.rdPerTurnAround::256-287           55     18.77%     72.35% # Reads before turning the bus around for writes
system.mem_ctrls.rdPerTurnAround::288-319           34     11.60%     83.96% # Reads before turning the bus around for writes
system.mem_ctrls.rdPerTurnAround::320-351           20      6.83%     90.78% # Reads before turning the bus around for writes
system.mem_ctrls.rdPerTurnAround::352-383           13      4.44%     95.22% # Reads before turning the bus around for writes
system.mem_ctrls.rdPerTurnAround::384-415            8      2.73%     97.95% # Reads before turning the bus around for writes
system.mem_ctrls.rdPerTurnAround::416-447            5      1.71%     99.66% # Reads before turning the bus around for writes
system.mem_ctrls.rdPerTurnAround::544-575            1      0.34%    100.00% # Reads before turning the bus around for writes
system.mem_ctrls.rdPerTurnAround::total           293                       # Reads before turning the bus around for writes
system.mem_ctrls.wrPerTurnAround::samples          293                       # Writes before turning the bus around for reads
system.mem_ctrls.wrPerTurnAround::mean      16.498294                       # Writes before turning the bus around for reads
system.mem_ctrls.wrPerTurnAround::gmean     16.476134                       # Writes before turning the bus around for reads
system.mem_ctrls.wrPerTurnAround::stdev      0.874387                       # Writes before turning the bus around for reads
system.mem_ctrls.wrPerTurnAround::16              220     75.09%     75.09% # Writes before turning the bus around for reads
system.mem_ctrls.wrPerTurnAround::17                2      0.68%     75.77% # Writes before turning the bus around for reads
system.mem_ctrls.wrPerTurnAround::18               69     23.55%     99.32% # Writes before turning the bus around for reads
system.mem_ctrls.wrPerTurnAround::19                2      0.68%    100.00% # Writes before turning the bus around for reads
system.mem_ctrls.wrPerTurnAround::total           293                       # Writes before turning the bus around for reads
system.mem_ctrls.totQLat                   2199685750                       # Total ticks spent queuing
system.mem_ctrls.totMemAccLat              3597854500                       # Total ticks spent from burst creation until serviced by the DRAM
system.mem_ctrls.totBusLat                  372845000                       # Total ticks spent in databus transfers
system.mem_ctrls.avgQLat                     29498.66                       # Average queueing delay per DRAM burst
system.mem_ctrls.avgBusLat                    5000.00                       # Average bus latency per DRAM burst
system.mem_ctrls.avgMemAccLat                48248.66                       # Average memory access latency per DRAM burst
system.mem_ctrls.avgRdBW                       312.59                       # Average DRAM read bandwidth in MiByte/s
system.mem_ctrls.avgWrBW                        20.26                       # Average achieved write bandwidth in MiByte/s
system.mem_ctrls.avgRdBWSys                    313.49                       # Average system read bandwidth in MiByte/s
system.mem_ctrls.avgWrBWSys                     20.24                       # Average system write bandwidth in MiByte/s
system.mem_ctrls.peakBW                      12800.00                       # Theoretical peak bandwidth in MiByte/s
system.mem_ctrls.busUtil                         2.60                       # Data bus utilization in percentage
system.mem_ctrls.busUtilRead                     2.44                       # Data bus utilization in percentage for reads
system.mem_ctrls.busUtilWrite                    0.16                       # Data bus utilization in percentage for writes
system.mem_ctrls.avgRdQLen                       1.14                       # Average read queue length when enqueuing
system.mem_ctrls.avgWrQLen                      25.38                       # Average write queue length when enqueuing
system.mem_ctrls.readRowHits                    21090                       # Number of row buffer hits during reads
system.mem_ctrls.writeRowHits                    1124                       # Number of row buffer hits during writes
system.mem_ctrls.readRowHitRate                 28.28                       # Row buffer hit rate for reads
system.mem_ctrls.writeRowHitRate                23.28                       # Row buffer hit rate for writes
system.mem_ctrls.avgGap                     191804.70                       # Average gap between requests
system.mem_ctrls.pageHitRate                    27.98                       # Row buffer hit rate, read and write combined
system.mem_ctrls_0.actEnergy                196749840                       # Energy for activate commands per rank (pJ)
system.mem_ctrls_0.preEnergy                104559840                       # Energy for precharge commands per rank (pJ)
system.mem_ctrls_0.readEnergy               255304980                       # Energy for read commands per rank (pJ)
system.mem_ctrls_0.writeEnergy               12663720                       # Energy for write commands per rank (pJ)
system.mem_ctrls_0.refreshEnergy         1237884960.000000                       # Energy for refresh commands per rank (pJ)
system.mem_ctrls_0.actBackEnergy            896596890                       # Energy for active background per rank (pJ)
system.mem_ctrls_0.preBackEnergy             36474720                       # Energy for precharge background per rank (pJ)
system.mem_ctrls_0.actPowerDownEnergy      4775656080                       # Energy for active power-down per rank (pJ)
system.mem_ctrls_0.prePowerDownEnergy       872861280                       # Energy for precharge power-down per rank (pJ)
system.mem_ctrls_0.selfRefreshEnergy        176700000                       # Energy for self refresh per rank (pJ)
system.mem_ctrls_0.totalEnergy             8565729690                       # Total energy per rank (pJ)
system.mem_ctrls_0.averagePower            561.049101                       # Core power per rank (mW)
system.mem_ctrls_0.totalIdleTime          13205266500                       # Total Idle time Per DRAM Rank
system.mem_ctrls_0.memoryStateTime::IDLE     41484000                       # Time in different power states
system.mem_ctrls_0.memoryStateTime::REF     524396000                       # Time in different power states
system.mem_ctrls_0.memoryStateTime::SREF    459504250                       # Time in different power states
system.mem_ctrls_0.memoryStateTime::PRE_PDN   2273050750                       # Time in different power states
system.mem_ctrls_0.memoryStateTime::ACT    1496104000                       # Time in different power states
system.mem_ctrls_0.memoryStateTime::ACT_PDN  10472805125                       # Time in different power states
system.mem_ctrls_1.actEnergy                211579620                       # Energy for activate commands per rank (pJ)
system.mem_ctrls_1.preEnergy                112442055                       # Energy for precharge commands per rank (pJ)
system.mem_ctrls_1.readEnergy               277117680                       # Energy for read commands per rank (pJ)
system.mem_ctrls_1.writeEnergy               12569760                       # Energy for write commands per rank (pJ)
system.mem_ctrls_1.refreshEnergy         1215143280.000000                       # Energy for refresh commands per rank (pJ)
system.mem_ctrls_1.actBackEnergy            930255390                       # Energy for active background per rank (pJ)
system.mem_ctrls_1.preBackEnergy             34413600                       # Energy for precharge background per rank (pJ)
system.mem_ctrls_1.actPowerDownEnergy      4725136410                       # Energy for active power-down per rank (pJ)
system.mem_ctrls_1.prePowerDownEnergy       831362400                       # Energy for precharge power-down per rank (pJ)
system.mem_ctrls_1.selfRefreshEnergy        202306740                       # Energy for self refresh per rank (pJ)
system.mem_ctrls_1.totalEnergy             8552663985                       # Total energy per rank (pJ)
system.mem_ctrls_1.averagePower            560.193306                       # Core power per rank (mW)
system.mem_ctrls_1.totalIdleTime          13136840500                       # Total Idle time Per DRAM Rank
system.mem_ctrls_1.memoryStateTime::IDLE     36444000                       # Time in different power states
system.mem_ctrls_1.memoryStateTime::REF     514656000                       # Time in different power states
system.mem_ctrls_1.memoryStateTime::SREF    609787750                       # Time in different power states
system.mem_ctrls_1.memoryStateTime::PRE_PDN   2164983250                       # Time in different power states
system.mem_ctrls_1.memoryStateTime::ACT    1579394250                       # Time in different power states
system.mem_ctrls_1.memoryStateTime::ACT_PDN  10362078875                       # Time in different power states
system.pwrStateResidencyTicks::UNDEFINED  15267344125                       # Cumulative time (in ticks) in various power states
system.cpu0.branchPred.lookups                4961618                       # Number of BP lookups
system.cpu0.branchPred.condPredicted          4961618                       # Number of conditional branches predicted
system.cpu0.branchPred.condIncorrect           196025                       # Number of conditional branches incorrect
system.cpu0.branchPred.BTBLookups             3766621                       # Number of BTB lookups
system.cpu0.branchPred.BTBHits                      0                       # Number of BTB hits
system.cpu0.branchPred.BTBCorrect                   0                       # Number of correct BTB predictions (this stat may not work properly.
system.cpu0.branchPred.BTBHitPct             0.000000                       # BTB Hit Percentage
system.cpu0.branchPred.usedRAS                 109285                       # Number of times the RAS was used to get a target.
system.cpu0.branchPred.RASInCorrect             14991                       # Number of incorrect RAS predictions.
system.cpu0.branchPred.indirectLookups        3766621                       # Number of indirect predictor lookups.
system.cpu0.branchPred.indirectHits           2161491                       # Number of indirect target hits.
system.cpu0.branchPred.indirectMisses         1605130                       # Number of indirect misses.
system.cpu0.branchPredindirectMispredicted        60064                       # Number of mispredicted indirect branches.
system.cpu_voltage_domain.voltage                   1                       # Voltage in Volts
system.cpu_clk_domain.clock                       500                       # Clock period in ticks
system.cpu0.dtb.walker.pwrStateResidencyTicks::UNDEFINED  15267344125                       # Cumulative time (in ticks) in various power states
system.cpu0.dtb.rdAccesses                    2362782                       # TLB accesses on read requests
system.cpu0.dtb.wrAccesses                     131756                       # TLB accesses on write requests
system.cpu0.dtb.rdMisses                       512436                       # TLB misses on read requests
system.cpu0.dtb.wrMisses                         2438                       # TLB misses on write requests
system.cpu0.apic_clk_domain.clock                8000                       # Clock period in ticks
system.cpu0.interrupts.pwrStateResidencyTicks::UNDEFINED  15267344125                       # Cumulative time (in ticks) in various power states
system.cpu0.itb.walker.pwrStateResidencyTicks::UNDEFINED  15267344125                       # Cumulative time (in ticks) in various power states
system.cpu0.itb.rdAccesses                          0                       # TLB accesses on read requests
system.cpu0.itb.wrAccesses                    4259958                       # TLB accesses on write requests
system.cpu0.itb.rdMisses                            0                       # TLB misses on read requests
system.cpu0.itb.wrMisses                         9431                       # TLB misses on write requests
system.cpu0.workload.numSyscalls                    0                       # Number of system calls
system.cpu0.pwrStateResidencyTicks::ON    15267344125                       # Cumulative time (in ticks) in various power states
system.cpu0.numCycles                        30534688                       # number of cpu cycles simulated
system.cpu0.numWorkItemsStarted                     0                       # number of work items this cpu started
system.cpu0.numWorkItemsCompleted                   0                       # number of work items this cpu completed
system.cpu0.fetch.icacheStallCycles           4344606                       # Number of cycles fetch is stalled on an Icache miss
system.cpu0.fetch.Insts                      14083515                       # Number of instructions fetch has processed
system.cpu0.fetch.Branches                    4961618                       # Number of branches that fetch encountered
system.cpu0.fetch.predictedBranches           2270776                       # Number of branches that fetch has predicted taken
system.cpu0.fetch.Cycles                     25904954                       # Number of cycles fetch has run and was not squashing or blocked
system.cpu0.fetch.SquashCycles                 398078                       # Number of cycles fetch has spent squashing
system.cpu0.fetch.TlbCycles                       792                       # Number of cycles fetch has spent waiting for tlb
system.cpu0.fetch.MiscStallCycles                2278                       # Number of cycles fetch has spent waiting on interrupts, or bad addresses, or out of MSHRs
system.cpu0.fetch.PendingTrapStallCycles        70709                       # Number of stall cycles due to pending traps
system.cpu0.fetch.PendingQuiesceStallCycles            3                       # Number of stall cycles due to pending quiesce instructions
system.cpu0.fetch.CacheLines                  4250527                       # Number of cache lines fetched
system.cpu0.fetch.IcacheSquashes                31870                       # Number of outstanding Icache misses that were squashed
system.cpu0.fetch.ItlbSquashes                     15                       # Number of outstanding ITLB misses that were squashed
system.cpu0.fetch.rateDist::samples          30522381                       # Number of instructions fetched each cycle (Total)
system.cpu0.fetch.rateDist::mean             0.925738                       # Number of instructions fetched each cycle (Total)
system.cpu0.fetch.rateDist::stdev            2.301605                       # Number of instructions fetched each cycle (Total)
system.cpu0.fetch.rateDist::underflows              0      0.00%      0.00% # Number of instructions fetched each cycle (Total)
system.cpu0.fetch.rateDist::0                24991279     81.88%     81.88% # Number of instructions fetched each cycle (Total)
system.cpu0.fetch.rateDist::1                   67197      0.22%     82.10% # Number of instructions fetched each cycle (Total)
system.cpu0.fetch.rateDist::2                 2130559      6.98%     89.08% # Number of instructions fetched each cycle (Total)
system.cpu0.fetch.rateDist::3                   62312      0.20%     89.28% # Number of instructions fetched each cycle (Total)
system.cpu0.fetch.rateDist::4                  370858      1.22%     90.50% # Number of instructions fetched each cycle (Total)
system.cpu0.fetch.rateDist::5                  141859      0.46%     90.96% # Number of instructions fetched each cycle (Total)
system.cpu0.fetch.rateDist::6                  232553      0.76%     91.72% # Number of instructions fetched each cycle (Total)
system.cpu0.fetch.rateDist::7                   53670      0.18%     91.90% # Number of instructions fetched each cycle (Total)
system.cpu0.fetch.rateDist::8                 2472094      8.10%    100.00% # Number of instructions fetched each cycle (Total)
system.cpu0.fetch.rateDist::overflows               0      0.00%    100.00% # Number of instructions fetched each cycle (Total)
system.cpu0.fetch.rateDist::min_value               0                       # Number of instructions fetched each cycle (Total)
system.cpu0.fetch.rateDist::max_value               8                       # Number of instructions fetched each cycle (Total)
system.cpu0.fetch.rateDist::total            30522381                       # Number of instructions fetched each cycle (Total)
system.cpu0.fetch.branchRate                 0.162491                       # Number of branch fetches per cycle
system.cpu0.fetch.rate                       0.461230                       # Number of inst fetches per cycle
system.cpu0.decode.IdleCycles                 2243082                       # Number of cycles decode is idle
system.cpu0.decode.BlockedCycles             24317022                       # Number of cycles decode is blocked
system.cpu0.decode.RunCycles                  2867158                       # Number of cycles decode is running
system.cpu0.decode.UnblockCycles               896080                       # Number of cycles decode is unblocking
system.cpu0.decode.SquashCycles                199039                       # Number of cycles decode is squashing
system.cpu0.decode.DecodedInsts              23958300                       # Number of instructions handled by decode
system.cpu0.rename.SquashCycles                199039                       # Number of cycles rename is squashing
system.cpu0.rename.IdleCycles                 2566364                       # Number of cycles rename is idle
system.cpu0.rename.BlockCycles               21302604                       # Number of cycles rename is blocking
system.cpu0.rename.serializeStallCycles         42256                       # count of cycles rename stalled for serializing inst
system.cpu0.rename.RunCycles                  3254785                       # Number of cycles rename is running
system.cpu0.rename.UnblockCycles              3157333                       # Number of cycles rename is unblocking
system.cpu0.rename.RenamedInsts              23062583                       # Number of instructions processed by rename
system.cpu0.rename.ROBFullEvents                60925                       # Number of times rename has blocked due to ROB full
system.cpu0.rename.IQFullEvents               2827181                       # Number of times rename has blocked due to IQ full
system.cpu0.rename.LQFullEvents                147000                       # Number of times rename has blocked due to LQ full
system.cpu0.rename.SQFullEvents                 40199                       # Number of times rename has blocked due to SQ full
system.cpu0.rename.RenamedOperands           27523836                       # Number of destination operands rename has renamed
system.cpu0.rename.RenameLookups             64656260                       # Number of register rename lookups that rename has made
system.cpu0.rename.int_rename_lookups        29922988                       # Number of integer rename lookups
system.cpu0.rename.fp_rename_lookups           110362                       # Number of floating rename lookups
system.cpu0.rename.CommittedMaps             10304748                       # Number of HB maps that are committed
system.cpu0.rename.UndoneMaps                17219087                       # Number of HB maps that are undone due to squashing
system.cpu0.rename.serializingInsts              1115                       # count of serializing insts renamed
system.cpu0.rename.tempSerializingInsts          1308                       # count of temporary serializing insts renamed
system.cpu0.rename.skidInsts                  5586550                       # count of insts added to the skid buffer
system.cpu0.memDep0.insertedLoads             4213482                       # Number of loads inserted to the mem dependence unit.
system.cpu0.memDep0.insertedStores             195477                       # Number of stores inserted to the mem dependence unit.
system.cpu0.memDep0.conflictingLoads            13825                       # Number of conflicting loads.
system.cpu0.memDep0.conflictingStores           13532                       # Number of conflicting stores.
system.cpu0.iq.iqInstsAdded                  21935947                       # Number of instructions added to the IQ (excludes non-spec)
system.cpu0.iq.iqNonSpecInstsAdded              11536                       # Number of non-speculative instructions added to the IQ
system.cpu0.iq.iqInstsIssued                 15664855                       # Number of instructions issued
system.cpu0.iq.iqSquashedInstsIssued            19332                       # Number of squashed instructions issued
system.cpu0.iq.iqSquashedInstsExamined       13350953                       # Number of squashed instructions iterated over during squash; mainly for profiling
system.cpu0.iq.iqSquashedOperandsExamined     29112325                       # Number of squashed operands that are examined and possibly removed from graph
system.cpu0.iq.iqSquashedNonSpecRemoved         11536                       # Number of squashed non-spec instructions that were removed
system.cpu0.iq.issued_per_cycle::samples     30522381                       # Number of insts issued each cycle
system.cpu0.iq.issued_per_cycle::mean        0.513225                       # Number of insts issued each cycle
system.cpu0.iq.issued_per_cycle::stdev       1.254095                       # Number of insts issued each cycle
system.cpu0.iq.issued_per_cycle::underflows            0      0.00%      0.00% # Number of insts issued each cycle
system.cpu0.iq.issued_per_cycle::0           24338230     79.74%     79.74% # Number of insts issued each cycle
system.cpu0.iq.issued_per_cycle::1            2274707      7.45%     87.19% # Number of insts issued each cycle
system.cpu0.iq.issued_per_cycle::2            1312083      4.30%     91.49% # Number of insts issued each cycle
system.cpu0.iq.issued_per_cycle::3             914840      3.00%     94.49% # Number of insts issued each cycle
system.cpu0.iq.issued_per_cycle::4             983985      3.22%     97.71% # Number of insts issued each cycle
system.cpu0.iq.issued_per_cycle::5             320557      1.05%     98.76% # Number of insts issued each cycle
system.cpu0.iq.issued_per_cycle::6             227641      0.75%     99.51% # Number of insts issued each cycle
system.cpu0.iq.issued_per_cycle::7              85813      0.28%     99.79% # Number of insts issued each cycle
system.cpu0.iq.issued_per_cycle::8              64525      0.21%    100.00% # Number of insts issued each cycle
system.cpu0.iq.issued_per_cycle::overflows            0      0.00%    100.00% # Number of insts issued each cycle
system.cpu0.iq.issued_per_cycle::min_value            0                       # Number of insts issued each cycle
system.cpu0.iq.issued_per_cycle::max_value            8                       # Number of insts issued each cycle
system.cpu0.iq.issued_per_cycle::total       30522381                       # Number of insts issued each cycle
system.cpu0.iq.fu_full::No_OpClass                  0      0.00%      0.00% # attempts to use FU when none available
system.cpu0.iq.fu_full::IntAlu                  33835     73.99%     73.99% # attempts to use FU when none available
system.cpu0.iq.fu_full::IntMult                     0      0.00%     73.99% # attempts to use FU when none available
system.cpu0.iq.fu_full::IntDiv                      0      0.00%     73.99% # attempts to use FU when none available
system.cpu0.iq.fu_full::FloatAdd                 3164      6.92%     80.91% # attempts to use FU when none available
system.cpu0.iq.fu_full::FloatCmp                    0      0.00%     80.91% # attempts to use FU when none available
system.cpu0.iq.fu_full::FloatCvt                    0      0.00%     80.91% # attempts to use FU when none available
system.cpu0.iq.fu_full::FloatMult                   0      0.00%     80.91% # attempts to use FU when none available
system.cpu0.iq.fu_full::FloatMultAcc                0      0.00%     80.91% # attempts to use FU when none available
system.cpu0.iq.fu_full::FloatDiv                    0      0.00%     80.91% # attempts to use FU when none available
system.cpu0.iq.fu_full::FloatMisc                   0      0.00%     80.91% # attempts to use FU when none available
system.cpu0.iq.fu_full::FloatSqrt                   0      0.00%     80.91% # attempts to use FU when none available
system.cpu0.iq.fu_full::SimdAdd                     0      0.00%     80.91% # attempts to use FU when none available
system.cpu0.iq.fu_full::SimdAddAcc                  0      0.00%     80.91% # attempts to use FU when none available
system.cpu0.iq.fu_full::SimdAlu                     0      0.00%     80.91% # attempts to use FU when none available
system.cpu0.iq.fu_full::SimdCmp                     0      0.00%     80.91% # attempts to use FU when none available
system.cpu0.iq.fu_full::SimdCvt                     0      0.00%     80.91% # attempts to use FU when none available
system.cpu0.iq.fu_full::SimdMisc                    0      0.00%     80.91% # attempts to use FU when none available
system.cpu0.iq.fu_full::SimdMult                    0      0.00%     80.91% # attempts to use FU when none available
system.cpu0.iq.fu_full::SimdMultAcc                 0      0.00%     80.91% # attempts to use FU when none available
system.cpu0.iq.fu_full::SimdShift                   0      0.00%     80.91% # attempts to use FU when none available
system.cpu0.iq.fu_full::SimdShiftAcc                0      0.00%     80.91% # attempts to use FU when none available
system.cpu0.iq.fu_full::SimdSqrt                    0      0.00%     80.91% # attempts to use FU when none available
system.cpu0.iq.fu_full::SimdFloatAdd                0      0.00%     80.91% # attempts to use FU when none available
system.cpu0.iq.fu_full::SimdFloatAlu                0      0.00%     80.91% # attempts to use FU when none available
system.cpu0.iq.fu_full::SimdFloatCmp                0      0.00%     80.91% # attempts to use FU when none available
system.cpu0.iq.fu_full::SimdFloatCvt                0      0.00%     80.91% # attempts to use FU when none available
system.cpu0.iq.fu_full::SimdFloatDiv                0      0.00%     80.91% # attempts to use FU when none available
system.cpu0.iq.fu_full::SimdFloatMisc               0      0.00%     80.91% # attempts to use FU when none available
system.cpu0.iq.fu_full::SimdFloatMult               0      0.00%     80.91% # attempts to use FU when none available
system.cpu0.iq.fu_full::SimdFloatMultAcc            0      0.00%     80.91% # attempts to use FU when none available
system.cpu0.iq.fu_full::SimdFloatSqrt               0      0.00%     80.91% # attempts to use FU when none available
system.cpu0.iq.fu_full::MemRead                  7442     16.27%     97.18% # attempts to use FU when none available
system.cpu0.iq.fu_full::MemWrite                  748      1.64%     98.82% # attempts to use FU when none available
system.cpu0.iq.fu_full::FloatMemRead              431      0.94%     99.76% # attempts to use FU when none available
system.cpu0.iq.fu_full::FloatMemWrite             109      0.24%    100.00% # attempts to use FU when none available
system.cpu0.iq.fu_full::IprAccess                   0      0.00%    100.00% # attempts to use FU when none available
system.cpu0.iq.fu_full::InstPrefetch                0      0.00%    100.00% # attempts to use FU when none available
system.cpu0.iq.FU_type_0::No_OpClass            42836      0.27%      0.27% # Type of FU issued
system.cpu0.iq.FU_type_0::IntAlu             12916242     82.45%     82.73% # Type of FU issued
system.cpu0.iq.FU_type_0::IntMult                2305      0.01%     82.74% # Type of FU issued
system.cpu0.iq.FU_type_0::IntDiv                27447      0.18%     82.92% # Type of FU issued
system.cpu0.iq.FU_type_0::FloatAdd              39026      0.25%     83.17% # Type of FU issued
system.cpu0.iq.FU_type_0::FloatCmp                  0      0.00%     83.17% # Type of FU issued
system.cpu0.iq.FU_type_0::FloatCvt                  0      0.00%     83.17% # Type of FU issued
system.cpu0.iq.FU_type_0::FloatMult                 0      0.00%     83.17% # Type of FU issued
system.cpu0.iq.FU_type_0::FloatMultAcc              0      0.00%     83.17% # Type of FU issued
system.cpu0.iq.FU_type_0::FloatDiv                  0      0.00%     83.17% # Type of FU issued
system.cpu0.iq.FU_type_0::FloatMisc                 0      0.00%     83.17% # Type of FU issued
system.cpu0.iq.FU_type_0::FloatSqrt                 0      0.00%     83.17% # Type of FU issued
system.cpu0.iq.FU_type_0::SimdAdd                   0      0.00%     83.17% # Type of FU issued
system.cpu0.iq.FU_type_0::SimdAddAcc                0      0.00%     83.17% # Type of FU issued
system.cpu0.iq.FU_type_0::SimdAlu                   0      0.00%     83.17% # Type of FU issued
system.cpu0.iq.FU_type_0::SimdCmp                   0      0.00%     83.17% # Type of FU issued
system.cpu0.iq.FU_type_0::SimdCvt                   0      0.00%     83.17% # Type of FU issued
system.cpu0.iq.FU_type_0::SimdMisc                  0      0.00%     83.17% # Type of FU issued
system.cpu0.iq.FU_type_0::SimdMult                  0      0.00%     83.17% # Type of FU issued
system.cpu0.iq.FU_type_0::SimdMultAcc               0      0.00%     83.17% # Type of FU issued
system.cpu0.iq.FU_type_0::SimdShift                 0      0.00%     83.17% # Type of FU issued
system.cpu0.iq.FU_type_0::SimdShiftAcc              0      0.00%     83.17% # Type of FU issued
system.cpu0.iq.FU_type_0::SimdSqrt                  0      0.00%     83.17% # Type of FU issued
system.cpu0.iq.FU_type_0::SimdFloatAdd              0      0.00%     83.17% # Type of FU issued
system.cpu0.iq.FU_type_0::SimdFloatAlu              0      0.00%     83.17% # Type of FU issued
system.cpu0.iq.FU_type_0::SimdFloatCmp              0      0.00%     83.17% # Type of FU issued
system.cpu0.iq.FU_type_0::SimdFloatCvt              0      0.00%     83.17% # Type of FU issued
system.cpu0.iq.FU_type_0::SimdFloatDiv              0      0.00%     83.17% # Type of FU issued
system.cpu0.iq.FU_type_0::SimdFloatMisc             0      0.00%     83.17% # Type of FU issued
system.cpu0.iq.FU_type_0::SimdFloatMult             0      0.00%     83.17% # Type of FU issued
system.cpu0.iq.FU_type_0::SimdFloatMultAcc            0      0.00%     83.17% # Type of FU issued
system.cpu0.iq.FU_type_0::SimdFloatSqrt             0      0.00%     83.17% # Type of FU issued
system.cpu0.iq.FU_type_0::MemRead             2486863     15.88%     99.04% # Type of FU issued
system.cpu0.iq.FU_type_0::MemWrite             141752      0.90%     99.95% # Type of FU issued
system.cpu0.iq.FU_type_0::FloatMemRead           7962      0.05%    100.00% # Type of FU issued
system.cpu0.iq.FU_type_0::FloatMemWrite           422      0.00%    100.00% # Type of FU issued
system.cpu0.iq.FU_type_0::IprAccess                 0      0.00%    100.00% # Type of FU issued
system.cpu0.iq.FU_type_0::InstPrefetch              0      0.00%    100.00% # Type of FU issued
system.cpu0.iq.FU_type_0::total              15664855                       # Type of FU issued
system.cpu0.iq.rate                          0.513018                       # Inst issue rate
system.cpu0.iq.fu_busy_cnt                      45729                       # FU busy when requested
system.cpu0.iq.fu_busy_rate                  0.002919                       # FU busy rate (busy events/executed inst)
system.cpu0.iq.int_inst_queue_reads          61818009                       # Number of integer instruction queue reads
system.cpu0.iq.int_inst_queue_writes         35201160                       # Number of integer instruction queue writes
system.cpu0.iq.int_inst_queue_wakeup_accesses     15017625                       # Number of integer instruction queue wakeup accesses
system.cpu0.iq.fp_inst_queue_reads              99143                       # Number of floating instruction queue reads
system.cpu0.iq.fp_inst_queue_writes             97286                       # Number of floating instruction queue writes
system.cpu0.iq.fp_inst_queue_wakeup_accesses        42785                       # Number of floating instruction queue wakeup accesses
system.cpu0.iq.vec_inst_queue_reads                 0                       # Number of vector instruction queue reads
system.cpu0.iq.vec_inst_queue_writes                0                       # Number of vector instruction queue writes
system.cpu0.iq.vec_inst_queue_wakeup_accesses            0                       # Number of vector instruction queue wakeup accesses
system.cpu0.iq.int_alu_accesses              15616597                       # Number of integer alu accesses
system.cpu0.iq.fp_alu_accesses                  51151                       # Number of floating point alu accesses
system.cpu0.iq.vec_alu_accesses                     0                       # Number of vector alu accesses
system.cpu0.iew.lsq.thread0.forwLoads           12259                       # Number of loads that had data forwarded from stores
system.cpu0.iew.lsq.thread0.invAddrLoads            0                       # Number of loads ignored due to an invalid address
system.cpu0.iew.lsq.thread0.squashedLoads      2578709                       # Number of loads squashed
system.cpu0.iew.lsq.thread0.ignoredResponses          419                       # Number of memory responses ignored because the instruction is squashed
system.cpu0.iew.lsq.thread0.memOrderViolation           10                       # Number of memory ordering violations
system.cpu0.iew.lsq.thread0.squashedStores       117032                       # Number of stores squashed
system.cpu0.iew.lsq.thread0.invAddrSwpfs            0                       # Number of software prefetches ignored due to an invalid address
system.cpu0.iew.lsq.thread0.blockedLoads            0                       # Number of blocked loads due to partial load-store forwarding
system.cpu0.iew.lsq.thread0.rescheduledLoads          104                       # Number of loads that were rescheduled
system.cpu0.iew.lsq.thread0.cacheBlocked         7257                       # Number of times an access to memory failed due to the cache being blocked
system.cpu0.iew.iewIdleCycles                       0                       # Number of cycles IEW is idle
system.cpu0.iew.iewSquashCycles                199039                       # Number of cycles IEW is squashing
system.cpu0.iew.iewBlockCycles               18472011                       # Number of cycles IEW is blocking
system.cpu0.iew.iewUnblockCycles               525183                       # Number of cycles IEW is unblocking
system.cpu0.iew.iewDispatchedInsts           21947483                       # Number of instructions dispatched to IQ
system.cpu0.iew.iewDispSquashedInsts             9850                       # Number of squashed instructions skipped by dispatch
system.cpu0.iew.iewDispLoadInsts              4213482                       # Number of dispatched load instructions
system.cpu0.iew.iewDispStoreInsts              195477                       # Number of dispatched store instructions
system.cpu0.iew.iewDispNonSpecInsts              4452                       # Number of dispatched non-speculative instructions
system.cpu0.iew.iewIQFullEvents                 36924                       # Number of times the IQ has become full, causing a stall
system.cpu0.iew.iewLSQFullEvents                31225                       # Number of times the LSQ has become full, causing a stall
system.cpu0.iew.memOrderViolationEvents            10                       # Number of memory order violations
system.cpu0.iew.predictedTakenIncorrect        110792                       # Number of branches that were predicted taken incorrectly
system.cpu0.iew.predictedNotTakenIncorrect       107981                       # Number of branches that were predicted not taken incorrectly
system.cpu0.iew.branchMispredicts              218773                       # Number of branch mispredicts detected at execute
system.cpu0.iew.iewExecutedInsts             15364174                       # Number of executed instructions
system.cpu0.iew.iewExecLoadInsts              2362089                       # Number of load instructions executed
system.cpu0.iew.iewExecSquashedInsts           300681                       # Number of squashed instructions skipped in execute
system.cpu0.iew.exec_swp                            0                       # number of swp insts executed
system.cpu0.iew.exec_nop                            0                       # number of nop insts executed
system.cpu0.iew.exec_refs                     2493811                       # number of memory reference insts executed
system.cpu0.iew.exec_branches                 1881581                       # Number of branches executed
system.cpu0.iew.exec_stores                    131722                       # Number of stores executed
system.cpu0.iew.exec_rate                    0.503171                       # Inst execution rate
system.cpu0.iew.wb_sent                      15105849                       # cumulative count of insts sent to commit
system.cpu0.iew.wb_count                     15060410                       # cumulative count of insts written-back
system.cpu0.iew.wb_producers                 11306729                       # num instructions producing a value
system.cpu0.iew.wb_consumers                 17809407                       # num instructions consuming a value
system.cpu0.iew.wb_rate                      0.493223                       # insts written-back per cycle
system.cpu0.iew.wb_fanout                    0.634874                       # average fanout of values written-back
system.cpu0.commit.commitSquashedInsts       13351780                       # The number of squashed insts skipped by commit
system.cpu0.commit.branchMispredicts           199032                       # The number of times a branch was mispredicted
system.cpu0.commit.committed_per_cycle::samples     28670257                       # Number of insts commited each cycle
system.cpu0.commit.committed_per_cycle::mean     0.299841                       # Number of insts commited each cycle
system.cpu0.commit.committed_per_cycle::stdev     0.982831                       # Number of insts commited each cycle
system.cpu0.commit.committed_per_cycle::underflows            0      0.00%      0.00% # Number of insts commited each cycle
system.cpu0.commit.committed_per_cycle::0     24973211     87.10%     87.10% # Number of insts commited each cycle
system.cpu0.commit.committed_per_cycle::1      1694013      5.91%     93.01% # Number of insts commited each cycle
system.cpu0.commit.committed_per_cycle::2       398266      1.39%     94.40% # Number of insts commited each cycle
system.cpu0.commit.committed_per_cycle::3      1106682      3.86%     98.26% # Number of insts commited each cycle
system.cpu0.commit.committed_per_cycle::4       197973      0.69%     98.95% # Number of insts commited each cycle
system.cpu0.commit.committed_per_cycle::5       118789      0.41%     99.37% # Number of insts commited each cycle
system.cpu0.commit.committed_per_cycle::6        19942      0.07%     99.44% # Number of insts commited each cycle
system.cpu0.commit.committed_per_cycle::7        10598      0.04%     99.47% # Number of insts commited each cycle
system.cpu0.commit.committed_per_cycle::8       150783      0.53%    100.00% # Number of insts commited each cycle
system.cpu0.commit.committed_per_cycle::overflows            0      0.00%    100.00% # Number of insts commited each cycle
system.cpu0.commit.committed_per_cycle::min_value            0                       # Number of insts commited each cycle
system.cpu0.commit.committed_per_cycle::max_value            8                       # Number of insts commited each cycle
system.cpu0.commit.committed_per_cycle::total     28670257                       # Number of insts commited each cycle
system.cpu0.commit.committedInsts             4299899                       # Number of instructions committed
system.cpu0.commit.committedOps               8596530                       # Number of ops (including micro ops) committed
system.cpu0.commit.swp_count                        0                       # Number of s/w prefetches committed
system.cpu0.commit.refs                       1713218                       # Number of memory references committed
system.cpu0.commit.loads                      1634773                       # Number of loads committed
system.cpu0.commit.membars                          0                       # Number of memory barriers committed
system.cpu0.commit.branches                   1558842                       # Number of branches committed
system.cpu0.commit.vec_insts                        0                       # Number of committed Vector instructions.
system.cpu0.commit.fp_insts                     31348                       # Number of committed floating point instructions.
system.cpu0.commit.int_insts                  8564689                       # Number of committed integer instructions.
system.cpu0.commit.function_calls               13850                       # Number of function calls committed.
system.cpu0.commit.op_class_0::No_OpClass         9573      0.11%      0.11% # Class of committed instruction
system.cpu0.commit.op_class_0::IntAlu         6823043     79.37%     79.48% # Class of committed instruction
system.cpu0.commit.op_class_0::IntMult            554      0.01%     79.49% # Class of committed instruction
system.cpu0.commit.op_class_0::IntDiv           23334      0.27%     79.76% # Class of committed instruction
system.cpu0.commit.op_class_0::FloatAdd         26808      0.31%     80.07% # Class of committed instruction
system.cpu0.commit.op_class_0::FloatCmp             0      0.00%     80.07% # Class of committed instruction
system.cpu0.commit.op_class_0::FloatCvt             0      0.00%     80.07% # Class of committed instruction
system.cpu0.commit.op_class_0::FloatMult            0      0.00%     80.07% # Class of committed instruction
system.cpu0.commit.op_class_0::FloatMultAcc            0      0.00%     80.07% # Class of committed instruction
system.cpu0.commit.op_class_0::FloatDiv             0      0.00%     80.07% # Class of committed instruction
system.cpu0.commit.op_class_0::FloatMisc            0      0.00%     80.07% # Class of committed instruction
system.cpu0.commit.op_class_0::FloatSqrt            0      0.00%     80.07% # Class of committed instruction
system.cpu0.commit.op_class_0::SimdAdd              0      0.00%     80.07% # Class of committed instruction
system.cpu0.commit.op_class_0::SimdAddAcc            0      0.00%     80.07% # Class of committed instruction
system.cpu0.commit.op_class_0::SimdAlu              0      0.00%     80.07% # Class of committed instruction
system.cpu0.commit.op_class_0::SimdCmp              0      0.00%     80.07% # Class of committed instruction
system.cpu0.commit.op_class_0::SimdCvt              0      0.00%     80.07% # Class of committed instruction
system.cpu0.commit.op_class_0::SimdMisc             0      0.00%     80.07% # Class of committed instruction
system.cpu0.commit.op_class_0::SimdMult             0      0.00%     80.07% # Class of committed instruction
system.cpu0.commit.op_class_0::SimdMultAcc            0      0.00%     80.07% # Class of committed instruction
system.cpu0.commit.op_class_0::SimdShift            0      0.00%     80.07% # Class of committed instruction
system.cpu0.commit.op_class_0::SimdShiftAcc            0      0.00%     80.07% # Class of committed instruction
system.cpu0.commit.op_class_0::SimdSqrt             0      0.00%     80.07% # Class of committed instruction
system.cpu0.commit.op_class_0::SimdFloatAdd            0      0.00%     80.07% # Class of committed instruction
system.cpu0.commit.op_class_0::SimdFloatAlu            0      0.00%     80.07% # Class of committed instruction
system.cpu0.commit.op_class_0::SimdFloatCmp            0      0.00%     80.07% # Class of committed instruction
system.cpu0.commit.op_class_0::SimdFloatCvt            0      0.00%     80.07% # Class of committed instruction
system.cpu0.commit.op_class_0::SimdFloatDiv            0      0.00%     80.07% # Class of committed instruction
system.cpu0.commit.op_class_0::SimdFloatMisc            0      0.00%     80.07% # Class of committed instruction
system.cpu0.commit.op_class_0::SimdFloatMult            0      0.00%     80.07% # Class of committed instruction
system.cpu0.commit.op_class_0::SimdFloatMultAcc            0      0.00%     80.07% # Class of committed instruction
system.cpu0.commit.op_class_0::SimdFloatSqrt            0      0.00%     80.07% # Class of committed instruction
system.cpu0.commit.op_class_0::MemRead        1630233     18.96%     99.03% # Class of committed instruction
system.cpu0.commit.op_class_0::MemWrite         78445      0.91%     99.95% # Class of committed instruction
system.cpu0.commit.op_class_0::FloatMemRead         4540      0.05%    100.00% # Class of committed instruction
system.cpu0.commit.op_class_0::FloatMemWrite            0      0.00%    100.00% # Class of committed instruction
system.cpu0.commit.op_class_0::IprAccess            0      0.00%    100.00% # Class of committed instruction
system.cpu0.commit.op_class_0::InstPrefetch            0      0.00%    100.00% # Class of committed instruction
system.cpu0.commit.op_class_0::total          8596530                       # Class of committed instruction
system.cpu0.commit.bw_lim_events               150783                       # number cycles where commit BW limit reached
system.cpu0.rob.rob_reads                    50467784                       # The number of ROB reads
system.cpu0.rob.rob_writes                   45753851                       # The number of ROB writes
system.cpu0.timesIdled                            344                       # Number of times that the entire CPU went into an idle state and unscheduled itself
system.cpu0.idleCycles                          12307                       # Total number of cycles that the CPU has spent unscheduled due to idling
system.cpu0.committedInsts                    4299899                       # Number of Instructions Simulated
system.cpu0.committedOps                      8596530                       # Number of Ops (including micro ops) Simulated
system.cpu0.cpi                              7.101257                       # CPI: Cycles Per Instruction
system.cpu0.cpi_total                        7.101257                       # CPI: Total CPI of All Threads
system.cpu0.ipc                              0.140820                       # IPC: Instructions Per Cycle
system.cpu0.ipc_total                        0.140820                       # IPC: Total IPC of All Threads
system.cpu0.int_regfile_reads                15065665                       # number of integer regfile reads
system.cpu0.int_regfile_writes               13068343                       # number of integer regfile writes
system.cpu0.fp_regfile_reads                    76332                       # number of floating regfile reads
system.cpu0.fp_regfile_writes                   38075                       # number of floating regfile writes
system.cpu0.cc_regfile_reads                  9997803                       # number of cc regfile reads
system.cpu0.cc_regfile_writes                 4157050                       # number of cc regfile writes
system.cpu0.misc_regfile_reads                8220074                       # number of misc regfile reads
system.cpu0.dcache.tags.pwrStateResidencyTicks::UNDEFINED  15267344125                       # Cumulative time (in ticks) in various power states
system.cpu0.dcache.tags.replacements           859562                       # number of replacements
system.cpu0.dcache.tags.tagsinuse                 512                       # Cycle average of tags in use
system.cpu0.dcache.tags.total_refs             963878                       # Total number of references to valid blocks.
system.cpu0.dcache.tags.sampled_refs           859562                       # Sample count of references to valid blocks.
system.cpu0.dcache.tags.avg_refs             1.121359                       # Average number of references to valid blocks.
system.cpu0.dcache.tags.warmup_cycle                0                       # Cycle when the warmup percentage was hit.
system.cpu0.dcache.tags.occ_blocks::cpu0.data          512                       # Average occupied blocks per requestor
system.cpu0.dcache.tags.occ_percent::cpu0.data            1                       # Average percentage of cache occupancy
system.cpu0.dcache.tags.occ_percent::total            1                       # Average percentage of cache occupancy
system.cpu0.dcache.tags.occ_task_id_blocks::1024          512                       # Occupied blocks per task id
system.cpu0.dcache.tags.age_task_id_blocks_1024::0          352                       # Occupied blocks per task id
system.cpu0.dcache.tags.age_task_id_blocks_1024::1          160                       # Occupied blocks per task id
system.cpu0.dcache.tags.occ_task_id_percent::1024            1                       # Percentage of cache occupancy per task id
system.cpu0.dcache.tags.tag_accesses         10512630                       # Number of tag accesses
system.cpu0.dcache.tags.data_accesses        10512630                       # Number of data accesses
system.cpu0.dcache.pwrStateResidencyTicks::UNDEFINED  15267344125                       # Cumulative time (in ticks) in various power states
system.cpu0.dcache.ReadReq_hits::cpu0.data       889080                       # number of ReadReq hits
system.cpu0.dcache.ReadReq_hits::total         889080                       # number of ReadReq hits
system.cpu0.dcache.WriteReq_hits::cpu0.data        74936                       # number of WriteReq hits
system.cpu0.dcache.WriteReq_hits::total         74936                       # number of WriteReq hits
system.cpu0.dcache.demand_hits::cpu0.data       964016                       # number of demand (read+write) hits
system.cpu0.dcache.demand_hits::total          964016                       # number of demand (read+write) hits
system.cpu0.dcache.overall_hits::cpu0.data       964016                       # number of overall hits
system.cpu0.dcache.overall_hits::total         964016                       # number of overall hits
system.cpu0.dcache.ReadReq_misses::cpu0.data      1445742                       # number of ReadReq misses
system.cpu0.dcache.ReadReq_misses::total      1445742                       # number of ReadReq misses
system.cpu0.dcache.WriteReq_misses::cpu0.data         3509                       # number of WriteReq misses
system.cpu0.dcache.WriteReq_misses::total         3509                       # number of WriteReq misses
system.cpu0.dcache.demand_misses::cpu0.data      1449251                       # number of demand (read+write) misses
system.cpu0.dcache.demand_misses::total       1449251                       # number of demand (read+write) misses
system.cpu0.dcache.overall_misses::cpu0.data      1449251                       # number of overall misses
system.cpu0.dcache.overall_misses::total      1449251                       # number of overall misses
system.cpu0.dcache.ReadReq_miss_latency::cpu0.data  31051714000                       # number of ReadReq miss cycles
system.cpu0.dcache.ReadReq_miss_latency::total  31051714000                       # number of ReadReq miss cycles
system.cpu0.dcache.WriteReq_miss_latency::cpu0.data    145995495                       # number of WriteReq miss cycles
system.cpu0.dcache.WriteReq_miss_latency::total    145995495                       # number of WriteReq miss cycles
system.cpu0.dcache.demand_miss_latency::cpu0.data  31197709495                       # number of demand (read+write) miss cycles
system.cpu0.dcache.demand_miss_latency::total  31197709495                       # number of demand (read+write) miss cycles
system.cpu0.dcache.overall_miss_latency::cpu0.data  31197709495                       # number of overall miss cycles
system.cpu0.dcache.overall_miss_latency::total  31197709495                       # number of overall miss cycles
system.cpu0.dcache.ReadReq_accesses::cpu0.data      2334822                       # number of ReadReq accesses(hits+misses)
system.cpu0.dcache.ReadReq_accesses::total      2334822                       # number of ReadReq accesses(hits+misses)
system.cpu0.dcache.WriteReq_accesses::cpu0.data        78445                       # number of WriteReq accesses(hits+misses)
system.cpu0.dcache.WriteReq_accesses::total        78445                       # number of WriteReq accesses(hits+misses)
system.cpu0.dcache.demand_accesses::cpu0.data      2413267                       # number of demand (read+write) accesses
system.cpu0.dcache.demand_accesses::total      2413267                       # number of demand (read+write) accesses
system.cpu0.dcache.overall_accesses::cpu0.data      2413267                       # number of overall (read+write) accesses
system.cpu0.dcache.overall_accesses::total      2413267                       # number of overall (read+write) accesses
system.cpu0.dcache.ReadReq_miss_rate::cpu0.data     0.619209                       # miss rate for ReadReq accesses
[...]
system.l2.demand_miss_rate::cpu0.data        0.086994                       # miss rate for demand accesses
system.l2.demand_miss_rate::total            0.086999                       # miss rate for demand accesses
system.l2.overall_miss_rate::cpu0.inst       0.333333                       # miss rate for overall accesses
system.l2.overall_miss_rate::cpu0.data       0.086994                       # miss rate for overall accesses
system.l2.overall_miss_rate::total           0.086999                       # miss rate for overall accesses
system.l2.ReadExReq_avg_miss_latency::cpu0.data 141946.071904                       # average ReadExReq miss latency
system.l2.ReadExReq_avg_miss_latency::total 141946.071904                       # average ReadExReq miss latency
system.l2.ReadCleanReq_avg_miss_latency::cpu0.inst       180750                       # average ReadCleanReq miss latency
system.l2.ReadCleanReq_avg_miss_latency::total       180750                       # average ReadCleanReq miss latency
system.l2.ReadSharedReq_avg_miss_latency::cpu0.data 99102.909788                       # average ReadSharedReq miss latency
system.l2.ReadSharedReq_avg_miss_latency::total 99102.909788                       # average ReadSharedReq miss latency
system.l2.demand_avg_miss_latency::cpu0.inst       180750                       # average overall miss latency
system.l2.demand_avg_miss_latency::cpu0.data 99533.192024                       # average overall miss latency
system.l2.demand_avg_miss_latency::total 99539.708222                       # average overall miss latency
system.l2.overall_avg_miss_latency::cpu0.inst       180750                       # average overall miss latency
system.l2.overall_avg_miss_latency::cpu0.data 99533.192024                       # average overall miss latency
system.l2.overall_avg_miss_latency::total 99539.708222                       # average overall miss latency
system.l2.blocked_cycles::no_mshrs                  0                       # number of cycles access was blocked
system.l2.blocked_cycles::no_targets                0                       # number of cycles access was blocked
system.l2.blocked::no_mshrs                         0                       # number of cycles access was blocked
system.l2.blocked::no_targets                       0                       # number of cycles access was blocked
system.l2.avg_blocked_cycles::no_mshrs            nan                       # average number of cycles each access was blocked
system.l2.avg_blocked_cycles::no_targets          nan                       # average number of cycles each access was blocked
system.l2.writebacks::writebacks                 4829                       # number of writebacks
system.l2.writebacks::total                      4829                       # number of writebacks
system.l2.ReadExReq_mshr_misses::cpu0.data          751                       # number of ReadExReq MSHR misses
system.l2.ReadExReq_mshr_misses::total            751                       # number of ReadExReq MSHR misses
system.l2.ReadCleanReq_mshr_misses::cpu0.inst            6                       # number of ReadCleanReq MSHR misses
system.l2.ReadCleanReq_mshr_misses::total            6                       # number of ReadCleanReq MSHR misses
system.l2.ReadSharedReq_mshr_misses::cpu0.data        74026                       # number of ReadSharedReq MSHR misses
system.l2.ReadSharedReq_mshr_misses::total        74026                       # number of ReadSharedReq MSHR misses
system.l2.demand_mshr_misses::cpu0.inst             6                       # number of demand (read+write) MSHR misses
system.l2.demand_mshr_misses::cpu0.data         74777                       # number of demand (read+write) MSHR misses
system.l2.demand_mshr_misses::total             74783                       # number of demand (read+write) MSHR misses
system.l2.overall_mshr_misses::cpu0.inst            6                       # number of overall MSHR misses
system.l2.overall_mshr_misses::cpu0.data        74777                       # number of overall MSHR misses
system.l2.overall_mshr_misses::total            74783                       # number of overall MSHR misses
system.l2.ReadExReq_mshr_miss_latency::cpu0.data     99091500                       # number of ReadExReq MSHR miss cycles
system.l2.ReadExReq_mshr_miss_latency::total     99091500                       # number of ReadExReq MSHR miss cycles
system.l2.ReadCleanReq_mshr_miss_latency::cpu0.inst      1024500                       # number of ReadCleanReq MSHR miss cycles
system.l2.ReadCleanReq_mshr_miss_latency::total      1024500                       # number of ReadCleanReq MSHR miss cycles
system.l2.ReadSharedReq_mshr_miss_latency::cpu0.data   6595942000                       # number of ReadSharedReq MSHR miss cycles
system.l2.ReadSharedReq_mshr_miss_latency::total   6595942000                       # number of ReadSharedReq MSHR miss cycles
system.l2.demand_mshr_miss_latency::cpu0.inst      1024500                       # number of demand (read+write) MSHR miss cycles
system.l2.demand_mshr_miss_latency::cpu0.data   6695033500                       # number of demand (read+write) MSHR miss cycles
system.l2.demand_mshr_miss_latency::total   6696058000                       # number of demand (read+write) MSHR miss cycles
system.l2.overall_mshr_miss_latency::cpu0.inst      1024500                       # number of overall MSHR miss cycles
system.l2.overall_mshr_miss_latency::cpu0.data   6695033500                       # number of overall MSHR miss cycles
system.l2.overall_mshr_miss_latency::total   6696058000                       # number of overall MSHR miss cycles
system.l2.ReadExReq_mshr_miss_rate::cpu0.data     0.214878                       # mshr miss rate for ReadExReq accesses
system.l2.ReadExReq_mshr_miss_rate::total     0.214878                       # mshr miss rate for ReadExReq accesses
system.l2.ReadCleanReq_mshr_miss_rate::cpu0.inst     0.333333                       # mshr miss rate for ReadCleanReq accesses
system.l2.ReadCleanReq_mshr_miss_rate::total     0.333333                       # mshr miss rate for ReadCleanReq accesses
system.l2.ReadSharedReq_mshr_miss_rate::cpu0.data     0.086472                       # mshr miss rate for ReadSharedReq accesses
system.l2.ReadSharedReq_mshr_miss_rate::total     0.086472                       # mshr miss rate for ReadSharedReq accesses
system.l2.demand_mshr_miss_rate::cpu0.inst     0.333333                       # mshr miss rate for demand accesses
system.l2.demand_mshr_miss_rate::cpu0.data     0.086994                       # mshr miss rate for demand accesses
system.l2.demand_mshr_miss_rate::total       0.086999                       # mshr miss rate for demand accesses
system.l2.overall_mshr_miss_rate::cpu0.inst     0.333333                       # mshr miss rate for overall accesses
system.l2.overall_mshr_miss_rate::cpu0.data     0.086994                       # mshr miss rate for overall accesses
system.l2.overall_mshr_miss_rate::total      0.086999                       # mshr miss rate for overall accesses
system.l2.ReadExReq_avg_mshr_miss_latency::cpu0.data 131946.071904                       # average ReadExReq mshr miss latency
system.l2.ReadExReq_avg_mshr_miss_latency::total 131946.071904                       # average ReadExReq mshr miss latency
system.l2.ReadCleanReq_avg_mshr_miss_latency::cpu0.inst       170750                       # average ReadCleanReq mshr miss latency
system.l2.ReadCleanReq_avg_mshr_miss_latency::total       170750                       # average ReadCleanReq mshr miss latency
system.l2.ReadSharedReq_avg_mshr_miss_latency::cpu0.data 89103.044876                       # average ReadSharedReq mshr miss latency
system.l2.ReadSharedReq_avg_mshr_miss_latency::total 89103.044876                       # average ReadSharedReq mshr miss latency
system.l2.demand_avg_mshr_miss_latency::cpu0.inst       170750                       # average overall mshr miss latency
system.l2.demand_avg_mshr_miss_latency::cpu0.data 89533.325755                       # average overall mshr miss latency
system.l2.demand_avg_mshr_miss_latency::total 89539.841943                       # average overall mshr miss latency
system.l2.overall_avg_mshr_miss_latency::cpu0.inst       170750                       # average overall mshr miss latency
system.l2.overall_avg_mshr_miss_latency::cpu0.data 89533.325755                       # average overall mshr miss latency
system.l2.overall_avg_mshr_miss_latency::total 89539.841943                       # average overall mshr miss latency
system.membus.snoop_filter.tot_requests        149563                       # Total number of requests made to the snoop filter.
system.membus.snoop_filter.hit_single_requests        74780                       # Number of requests hitting in the snoop filter with a single holder of the requested data.
system.membus.snoop_filter.hit_multi_requests            0                       # Number of requests hitting in the snoop filter with multiple (>1) holders of the requested data.
system.membus.snoop_filter.tot_snoops               0                       # Total number of snoops made to the snoop filter.
system.membus.snoop_filter.hit_single_snoops            0                       # Number of snoops hitting in the snoop filter with a single holder of the requested data.
system.membus.snoop_filter.hit_multi_snoops            0                       # Number of snoops hitting in the snoop filter with multiple (>1) holders of the requested data.
system.membus.pwrStateResidencyTicks::UNDEFINED  15267344125                       # Cumulative time (in ticks) in various power states
system.membus.trans_dist::ReadResp              74031                       # Transaction distribution
system.membus.trans_dist::WritebackDirty         4829                       # Transaction distribution
system.membus.trans_dist::CleanEvict            69951                       # Transaction distribution
system.membus.trans_dist::ReadExReq               751                       # Transaction distribution
system.membus.trans_dist::ReadExResp              751                       # Transaction distribution
system.membus.trans_dist::ReadSharedReq         74032                       # Transaction distribution
system.membus.pkt_count_system.l2.mem_side::system.mem_ctrls.port       224345                       # Packet count per connected master and slave (bytes)
system.membus.pkt_count_system.l2.mem_side::total       224345                       # Packet count per connected master and slave (bytes)
system.membus.pkt_count::total                 224345                       # Packet count per connected master and slave (bytes)
system.membus.pkt_size_system.l2.mem_side::system.mem_ctrls.port      5095104                       # Cumulative packet size per connected master and slave (bytes)
system.membus.pkt_size_system.l2.mem_side::total      5095104                       # Cumulative packet size per connected master and slave (bytes)
system.membus.pkt_size::total                 5095104                       # Cumulative packet size per connected master and slave (bytes)
system.membus.snoops                                0                       # Total snoops (count)
system.membus.snoopTraffic                          0                       # Total snoop traffic (bytes)
system.membus.snoop_fanout::samples             74783                       # Request fanout histogram
system.membus.snoop_fanout::mean                    0                       # Request fanout histogram
system.membus.snoop_fanout::stdev                   0                       # Request fanout histogram
system.membus.snoop_fanout::underflows              0      0.00%      0.00% # Request fanout histogram
system.membus.snoop_fanout::0                   74783    100.00%    100.00% # Request fanout histogram
system.membus.snoop_fanout::1                       0      0.00%    100.00% # Request fanout histogram
system.membus.snoop_fanout::overflows               0      0.00%    100.00% # Request fanout histogram
system.membus.snoop_fanout::min_value               0                       # Request fanout histogram
system.membus.snoop_fanout::max_value               0                       # Request fanout histogram
system.membus.snoop_fanout::total               74783                       # Request fanout histogram
system.membus.reqLayer12.occupancy          190315000                       # Layer occupancy (ticks)
system.membus.reqLayer12.utilization              1.2                       # Layer utilization (%)
system.membus.respLayer1.occupancy          411645250                       # Layer occupancy (ticks)
system.membus.respLayer1.utilization              2.7                       # Layer utilization (%)
system.tol2bus.snoop_filter.tot_requests      1719160                       # Total number of requests made to the snoop filter.
system.tol2bus.snoop_filter.hit_single_requests       859581                       # Number of requests hitting in the snoop filter with a single holder of the requested data.
system.tol2bus.snoop_filter.hit_multi_requests         1855                       # Number of requests hitting in the snoop filter with multiple (>1) holders of the requested data.
system.tol2bus.snoop_filter.tot_snoops              8                       # Total number of snoops made to the snoop filter.
system.tol2bus.snoop_filter.hit_single_snoops            8                       # Number of snoops hitting in the snoop filter with a single holder of the requested data.
system.tol2bus.snoop_filter.hit_multi_snoops            0                       # Number of snoops hitting in the snoop filter with multiple (>1) holders of the requested data.
system.tol2bus.pwrStateResidencyTicks::UNDEFINED  15267344125                       # Cumulative time (in ticks) in various power states
system.tol2bus.trans_dist::ReadResp            856085                       # Transaction distribution
system.tol2bus.trans_dist::WritebackDirty       198261                       # Transaction distribution
system.tol2bus.trans_dist::WritebackClean           18                       # Transaction distribution
system.tol2bus.trans_dist::CleanEvict          736089                       # Transaction distribution
system.tol2bus.trans_dist::ReadExReq             3495                       # Transaction distribution
system.tol2bus.trans_dist::ReadExResp            3495                       # Transaction distribution
system.tol2bus.trans_dist::ReadCleanReq            18                       # Transaction distribution
system.tol2bus.trans_dist::ReadSharedReq       856067                       # Transaction distribution
system.tol2bus.pkt_count_system.cpu0.icache.mem_side::system.l2.cpu_side           54                       # Packet count per connected master and slave (bytes)
system.tol2bus.pkt_count_system.cpu0.dcache.mem_side::system.l2.cpu_side      2578686                       # Packet count per connected master and slave (bytes)
system.tol2bus.pkt_count::total               2578740                       # Packet count per connected master and slave (bytes)
system.tol2bus.pkt_size_system.cpu0.icache.mem_side::system.l2.cpu_side         2304                       # Cumulative packet size per connected master and slave (bytes)
system.tol2bus.pkt_size_system.cpu0.dcache.mem_side::system.l2.cpu_side     67391616                       # Cumulative packet size per connected master and slave (bytes)
system.tol2bus.pkt_size::total               67393920                       # Cumulative packet size per connected master and slave (bytes)
system.tol2bus.snoops                           74788                       # Total snoops (count)
system.tol2bus.snoopTraffic                    309056                       # Total snoop traffic (bytes)
system.tol2bus.snoop_fanout::samples           934368                       # Request fanout histogram
system.tol2bus.snoop_fanout::mean            0.001995                       # Request fanout histogram
system.tol2bus.snoop_fanout::stdev           0.044620                       # Request fanout histogram
system.tol2bus.snoop_fanout::underflows             0      0.00%      0.00% # Request fanout histogram
system.tol2bus.snoop_fanout::0                 932504     99.80%     99.80% # Request fanout histogram
system.tol2bus.snoop_fanout::1                   1864      0.20%    100.00% # Request fanout histogram
system.tol2bus.snoop_fanout::2                      0      0.00%    100.00% # Request fanout histogram
system.tol2bus.snoop_fanout::3                      0      0.00%    100.00% # Request fanout histogram
system.tol2bus.snoop_fanout::4                      0      0.00%    100.00% # Request fanout histogram
system.tol2bus.snoop_fanout::5                      0      0.00%    100.00% # Request fanout histogram
system.tol2bus.snoop_fanout::6                      0      0.00%    100.00% # Request fanout histogram
system.tol2bus.snoop_fanout::7                      0      0.00%    100.00% # Request fanout histogram
system.tol2bus.snoop_fanout::8                      0      0.00%    100.00% # Request fanout histogram
system.tol2bus.snoop_fanout::9                      0      0.00%    100.00% # Request fanout histogram
system.tol2bus.snoop_fanout::10                     0      0.00%    100.00% # Request fanout histogram
system.tol2bus.snoop_fanout::11                     0      0.00%    100.00% # Request fanout histogram
system.tol2bus.snoop_fanout::12                     0      0.00%    100.00% # Request fanout histogram
system.tol2bus.snoop_fanout::13                     0      0.00%    100.00% # Request fanout histogram
system.tol2bus.snoop_fanout::14                     0      0.00%    100.00% # Request fanout histogram
system.tol2bus.snoop_fanout::15                     0      0.00%    100.00% # Request fanout histogram
system.tol2bus.snoop_fanout::16                     0      0.00%    100.00% # Request fanout histogram
system.tol2bus.snoop_fanout::17                     0      0.00%    100.00% # Request fanout histogram
system.tol2bus.snoop_fanout::18                     0      0.00%    100.00% # Request fanout histogram
system.tol2bus.snoop_fanout::19                     0      0.00%    100.00% # Request fanout histogram
system.tol2bus.snoop_fanout::20                     0      0.00%    100.00% # Request fanout histogram
system.tol2bus.snoop_fanout::21                     0      0.00%    100.00% # Request fanout histogram
system.tol2bus.snoop_fanout::22                     0      0.00%    100.00% # Request fanout histogram
system.tol2bus.snoop_fanout::23                     0      0.00%    100.00% # Request fanout histogram
system.tol2bus.snoop_fanout::24                     0      0.00%    100.00% # Request fanout histogram
system.tol2bus.snoop_fanout::overflows              0      0.00%    100.00% # Request fanout histogram
system.tol2bus.snoop_fanout::min_value              0                       # Request fanout histogram
system.tol2bus.snoop_fanout::max_value              1                       # Request fanout histogram
system.tol2bus.snoop_fanout::total             934368                       # Request fanout histogram
system.tol2bus.reqLayer0.occupancy         1053030000                       # Layer occupancy (ticks)
system.tol2bus.reqLayer0.utilization              6.9                       # Layer utilization (%)
system.tol2bus.respLayer0.occupancy             27000                       # Layer occupancy (ticks)
system.tol2bus.respLayer0.utilization             0.0                       # Layer utilization (%)
system.tol2bus.respLayer1.occupancy        1289343000                       # Layer occupancy (ticks)
system.tol2bus.respLayer1.utilization             8.4                       # Layer utilization (%)

---------- End Simulation Statistics   ----------
