
---------- Begin Simulation Statistics ----------
sim_seconds                                  0.015267                       # Number of seconds simulated
sim_ticks                                 15267344125                       # Number of ticks simulated
final_tick                               4183252290250                       # Number of ticks from beginning of simulation (restored from checkpoints and never reset)
sim_freq                                 1000000000000                       # Frequency of simulated ticks
host_inst_rate                               85356944                       # Simulator instruction rate (inst/s)
host_op_rate                                159088502                       # Simulator op (including micro ops) rate (op/s)
host_tick_rate                              216124811                       # Simulator tick rate (ticks/s)
host_mem_usage                                3428912                       # Number of bytes of host memory used
host_seconds                                    70.64                       # Real time elapsed on the host
sim_insts                                  6029725303                       # Number of instructions simulated
sim_ops                                   11238220997                       # Number of ops (including micro ops) simulated
system.voltage_domain.voltage                       1                       # Voltage in Volts
system.clk_domain.clock                          1000                       # Clock period in ticks
system.mem_ctrls.pwrStateResidencyTicks::UNDEFINED  15267344125                       # Cumulative time (in ticks) in various power states
system.mem_ctrls.bytes_read::cpu0.inst            256                       # Number of bytes read from this memory
system.mem_ctrls.bytes_read::cpu0.data        7408704                       # Number of bytes read from this memory
system.mem_ctrls.bytes_read::total            7408960                       # Number of bytes read from this memory
system.mem_ctrls.bytes_inst_read::cpu0.inst          256                       # Number of instructions bytes read from this memory
system.mem_ctrls.bytes_inst_read::total           256                       # Number of instructions bytes read from this memory
system.mem_ctrls.bytes_written::writebacks        37824                       # Number of bytes written to this memory
system.mem_ctrls.bytes_written::total           37824                       # Number of bytes written to this memory
system.mem_ctrls.num_reads::cpu0.inst               4                       # Number of read requests responded to by this memory
system.mem_ctrls.num_reads::cpu0.data          115761                       # Number of read requests responded to by this memory
system.mem_ctrls.num_reads::total              115765                       # Number of read requests responded to by this memory
system.mem_ctrls.num_writes::writebacks           591                       # Number of write requests responded to by this memory
system.mem_ctrls.num_writes::total                591                       # Number of write requests responded to by this memory
system.mem_ctrls.bw_read::cpu0.inst             16768                       # Total read bandwidth from this memory (bytes/s)
system.mem_ctrls.bw_read::cpu0.data         485264755                       # Total read bandwidth from this memory (bytes/s)
system.mem_ctrls.bw_read::total             485281522                       # Total read bandwidth from this memory (bytes/s)
system.mem_ctrls.bw_inst_read::cpu0.inst        16768                       # Instruction read bandwidth from this memory (bytes/s)
system.mem_ctrls.bw_inst_read::total            16768                       # Instruction read bandwidth from this memory (bytes/s)
system.mem_ctrls.bw_write::writebacks         2477445                       # Write bandwidth from this memory (bytes/s)
system.mem_ctrls.bw_write::total              2477445                       # Write bandwidth from this memory (bytes/s)
system.mem_ctrls.bw_total::writebacks         2477445                       # Total bandwidth to/from this memory (bytes/s)
system.mem_ctrls.bw_total::cpu0.inst            16768                       # Total bandwidth to/from this memory (bytes/s)
system.mem_ctrls.bw_total::cpu0.data        485264755                       # Total bandwidth to/from this memory (bytes/s)
system.mem_ctrls.bw_total::total            487758967                       # Total bandwidth to/from this memory (bytes/s)
system.mem_ctrls.readReqs                      115764                       # Number of read requests accepted
system.mem_ctrls.writeReqs                        591                       # Number of write requests accepted
system.mem_ctrls.readBursts                    115764                       # Number of DRAM read bursts, including those serviced by the write queue
system.mem_ctrls.writeBursts                      591                       # Number of DRAM write bursts, including those merged in the write queue
system.mem_ctrls.bytesReadDRAM                7404160                       # Total number of bytes read from DRAM
system.mem_ctrls.bytesReadWrQ                    4736                       # Total number of bytes read from write queue
system.mem_ctrls.bytesWritten                   38336                       # Total number of bytes written to DRAM
system.mem_ctrls.bytesReadSys                 7408896                       # Total read bytes from the system interface side
system.mem_ctrls.bytesWrittenSys                37824                       # Total written bytes from the system interface side
system.mem_ctrls.servicedByWrQ                     74                       # Number of DRAM read bursts serviced by the write queue
system.mem_ctrls.mergedWrBursts                     0                       # Number of DRAM write bursts merged with an existing one
system.mem_ctrls.neitherReadNorWriteReqs            0                       # Number of requests that are neither read nor write
system.mem_ctrls.perBankRdBursts::0              7193                       # Per bank write bursts
system.mem_ctrls.perBankRdBursts::1              7137                       # Per bank write bursts
system.mem_ctrls.perBankRdBursts::2              6948                       # Per bank write bursts
system.mem_ctrls.perBankRdBursts::3              6852                       # Per bank write bursts
system.mem_ctrls.perBankRdBursts::4              7082                       # Per bank write bursts
system.mem_ctrls.perBankRdBursts::5              6917                       # Per bank write bursts
system.mem_ctrls.perBankRdBursts::6              6862                       # Per bank write bursts
system.mem_ctrls.perBankRdBursts::7              6881                       # Per bank write bursts
system.mem_ctrls.perBankRdBursts::8              7006                       # Per bank write bursts
system.mem_ctrls.perBankRdBursts::9              6837                       # Per bank write bursts
system.mem_ctrls.perBankRdBursts::10             6948                       # Per bank write bursts
system.mem_ctrls.perBankRdBursts::11             7163                       # Per bank write bursts
system.mem_ctrls.perBankRdBursts::12             7803                       # Per bank write bursts
system.mem_ctrls.perBankRdBursts::13             8273                       # Per bank write bursts
system.mem_ctrls.perBankRdBursts::14             7884                       # Per bank write bursts
system.mem_ctrls.perBankRdBursts::15             7904                       # Per bank write bursts
system.mem_ctrls.perBankWrBursts::0                34                       # Per bank write bursts
system.mem_ctrls.perBankWrBursts::1                 8                       # Per bank write bursts
system.mem_ctrls.perBankWrBursts::2                 0                       # Per bank write bursts
system.mem_ctrls.perBankWrBursts::3                 3                       # Per bank write bursts
system.mem_ctrls.perBankWrBursts::4                30                       # Per bank write bursts
system.mem_ctrls.perBankWrBursts::5                11                       # Per bank write bursts
system.mem_ctrls.perBankWrBursts::6                 9                       # Per bank write bursts
system.mem_ctrls.perBankWrBursts::7                10                       # Per bank write bursts
system.mem_ctrls.perBankWrBursts::8                23                       # Per bank write bursts
system.mem_ctrls.perBankWrBursts::9                21                       # Per bank write bursts
system.mem_ctrls.perBankWrBursts::10               28                       # Per bank write bursts
system.mem_ctrls.perBankWrBursts::11               46                       # Per bank write bursts
system.mem_ctrls.perBankWrBursts::12               98                       # Per bank write bursts
system.mem_ctrls.perBankWrBursts::13               90                       # Per bank write bursts
system.mem_ctrls.perBankWrBursts::14              102                       # Per bank write bursts
system.mem_ctrls.perBankWrBursts::15               86                       # Per bank write bursts
system.mem_ctrls.numRdRetry                         0                       # Number of times read queue was full causing retry
system.mem_ctrls.numWrRetry                         0                       # Number of times write queue was full causing retry
system.mem_ctrls.totGap                   15267285000                       # Total gap between requests
system.mem_ctrls.readPktSize::0                     0                       # Read request sizes (log2)
system.mem_ctrls.readPktSize::1                     0                       # Read request sizes (log2)
system.mem_ctrls.readPktSize::2                     0                       # Read request sizes (log2)
system.mem_ctrls.readPktSize::3                     0                       # Read request sizes (log2)
system.mem_ctrls.readPktSize::4                     0                       # Read request sizes (log2)
system.mem_ctrls.readPktSize::5                     0                       # Read request sizes (log2)
system.mem_ctrls.readPktSize::6                115764                       # Read request sizes (log2)
system.mem_ctrls.writePktSize::0                    0                       # Write request sizes (log2)
system.mem_ctrls.writePktSize::1                    0                       # Write request sizes (log2)
system.mem_ctrls.writePktSize::2                    0                       # Write request sizes (log2)
system.mem_ctrls.writePktSize::3                    0                       # Write request sizes (log2)
system.mem_ctrls.writePktSize::4                    0                       # Write request sizes (log2)
system.mem_ctrls.writePktSize::5                    0                       # Write request sizes (log2)
system.mem_ctrls.writePktSize::6                  591                       # Write request sizes (log2)
system.mem_ctrls.rdQLenPdf::0                   92518                       # What read queue length does an incoming req see
system.mem_ctrls.rdQLenPdf::1                   21286                       # What read queue length does an incoming req see
system.mem_ctrls.rdQLenPdf::2                    1812                       # What read queue length does an incoming req see
system.mem_ctrls.rdQLenPdf::3                      73                       # What read queue length does an incoming req see
system.mem_ctrls.rdQLenPdf::4                       1                       # What read queue length does an incoming req see
system.mem_ctrls.rdQLenPdf::5                       0                       # What read queue length does an incoming req see
system.mem_ctrls.rdQLenPdf::6                       0                       # What read queue length does an incoming req see
system.mem_ctrls.rdQLenPdf::7                       0                       # What read queue length does an incoming req see
system.mem_ctrls.rdQLenPdf::8                       0                       # What read queue length does an incoming req see
system.mem_ctrls.rdQLenPdf::9                       0                       # What read queue length does an incoming req see
system.mem_ctrls.rdQLenPdf::10                      0                       # What read queue length does an incoming req see
system.mem_ctrls.rdQLenPdf::11                      0                       # What read queue length does an incoming req see
system.mem_ctrls.rdQLenPdf::12                      0                       # What read queue length does an incoming req see
system.mem_ctrls.rdQLenPdf::13                      0                       # What read queue length does an incoming req see
system.mem_ctrls.rdQLenPdf::14                      0                       # What read queue length does an incoming req see
system.mem_ctrls.rdQLenPdf::15                      0                       # What read queue length does an incoming req see
system.mem_ctrls.rdQLenPdf::16                      0                       # What read queue length does an incoming req see
system.mem_ctrls.rdQLenPdf::17                      0                       # What read queue length does an incoming req see
system.mem_ctrls.rdQLenPdf::18                      0                       # What read queue length does an incoming req see
system.mem_ctrls.rdQLenPdf::19                      0                       # What read queue length does an incoming req see
system.mem_ctrls.rdQLenPdf::20                      0                       # What read queue length does an incoming req see
system.mem_ctrls.rdQLenPdf::21                      0                       # What read queue length does an incoming req see
system.mem_ctrls.rdQLenPdf::22                      0                       # What read queue length does an incoming req see
system.mem_ctrls.rdQLenPdf::23                      0                       # What read queue length does an incoming req see
system.mem_ctrls.rdQLenPdf::24                      0                       # What read queue length does an incoming req see
system.mem_ctrls.rdQLenPdf::25                      0                       # What read queue length does an incoming req see
system.mem_ctrls.rdQLenPdf::26                      0                       # What read queue length does an incoming req see
system.mem_ctrls.rdQLenPdf::27                      0                       # What read queue length does an incoming req see
system.mem_ctrls.rdQLenPdf::28                      0                       # What read queue length does an incoming req see
system.mem_ctrls.rdQLenPdf::29                      0                       # What read queue length does an incoming req see
system.mem_ctrls.rdQLenPdf::30                      0                       # What read queue length does an incoming req see
system.mem_ctrls.rdQLenPdf::31                      0                       # What read queue length does an incoming req see
system.mem_ctrls.wrQLenPdf::0                       0                       # What write queue length does an incoming req see
system.mem_ctrls.wrQLenPdf::1                       0                       # What write queue length does an incoming req see
system.mem_ctrls.wrQLenPdf::2                       0                       # What write queue length does an incoming req see
system.mem_ctrls.wrQLenPdf::3                       0                       # What write queue length does an incoming req see
system.mem_ctrls.wrQLenPdf::4                       0                       # What write queue length does an incoming req see
system.mem_ctrls.wrQLenPdf::5                       0                       # What write queue length does an incoming req see
system.mem_ctrls.wrQLenPdf::6                       0                       # What write queue length does an incoming req see
system.mem_ctrls.wrQLenPdf::7                       0                       # What write queue length does an incoming req see
system.mem_ctrls.wrQLenPdf::8                       0                       # What write queue length does an incoming req see
system.mem_ctrls.wrQLenPdf::9                       0                       # What write queue length does an incoming req see
system.mem_ctrls.wrQLenPdf::10                      0                       # What write queue length does an incoming req see
system.mem_ctrls.wrQLenPdf::11                      0                       # What write queue length does an incoming req see
system.mem_ctrls.wrQLenPdf::12                      0                       # What write queue length does an incoming req see
system.mem_ctrls.wrQLenPdf::13                      0                       # What write queue length does an incoming req see
system.mem_ctrls.wrQLenPdf::14                      0                       # What write queue length does an incoming req see
system.mem_ctrls.wrQLenPdf::15                      3                       # What write queue length does an incoming req see
system.mem_ctrls.wrQLenPdf::16                      3                       # What write queue length does an incoming req see
system.mem_ctrls.wrQLenPdf::17                     37                       # What write queue length does an incoming req see
system.mem_ctrls.wrQLenPdf::18                     37                       # What write queue length does an incoming req see
system.mem_ctrls.wrQLenPdf::19                     36                       # What write queue length does an incoming req see
system.mem_ctrls.wrQLenPdf::20                     36                       # What write queue length does an incoming req see
system.mem_ctrls.wrQLenPdf::21                     36                       # What write queue length does an incoming req see
system.mem_ctrls.wrQLenPdf::22                     36                       # What write queue length does an incoming req see
system.mem_ctrls.wrQLenPdf::23                     36                       # What write queue length does an incoming req see
system.mem_ctrls.wrQLenPdf::24                     36                       # What write queue length does an incoming req see
system.mem_ctrls.wrQLenPdf::25                     36                       # What write queue length does an incoming req see
system.mem_ctrls.wrQLenPdf::26                     36                       # What write queue length does an incoming req see
system.mem_ctrls.wrQLenPdf::27                     37                       # What write queue length does an incoming req see
system.mem_ctrls.wrQLenPdf::28                     37                       # What write queue length does an incoming req see
system.mem_ctrls.wrQLenPdf::29                     37                       # What write queue length does an incoming req see
system.mem_ctrls.wrQLenPdf::30                     38                       # What write queue length does an incoming req see
system.mem_ctrls.wrQLenPdf::31                     37                       # What write queue length does an incoming req see
system.mem_ctrls.wrQLenPdf::32                     37                       # What write queue length does an incoming req see
system.mem_ctrls.wrQLenPdf::33                      0                       # What write queue length does an incoming req see
system.mem_ctrls.wrQLenPdf::34                      0                       # What write queue length does an incoming req see
system.mem_ctrls.wrQLenPdf::35                      0                       # What write queue length does an incoming req see
system.mem_ctrls.wrQLenPdf::36                      0                       # What write queue length does an incoming req see
system.mem_ctrls.wrQLenPdf::37                      0                       # What write queue length does an incoming req see
system.mem_ctrls.wrQLenPdf::38                      0                       # What write queue length does an incoming req see
system.mem_ctrls.wrQLenPdf::39                      0                       # What write queue length does an incoming req see
system.mem_ctrls.wrQLenPdf::40                      0                       # What write queue length does an incoming req see
system.mem_ctrls.wrQLenPdf::41                      0                       # What write queue length does an incoming req see
system.mem_ctrls.wrQLenPdf::42                      0                       # What write queue length does an incoming req see
system.mem_ctrls.wrQLenPdf::43                      0                       # What write queue length does an incoming req see
system.mem_ctrls.wrQLenPdf::44                      0                       # What write queue length does an incoming req see
system.mem_ctrls.wrQLenPdf::45                      0                       # What write queue length does an incoming req see
system.mem_ctrls.wrQLenPdf::46                      0                       # What write queue length does an incoming req see
system.mem_ctrls.wrQLenPdf::47                      0                       # What write queue length does an incoming req see
system.mem_ctrls.wrQLenPdf::48                      0                       # What write queue length does an incoming req see
system.mem_ctrls.wrQLenPdf::49                      0                       # What write queue length does an incoming req see
system.mem_ctrls.wrQLenPdf::50                      0                       # What write queue length does an incoming req see
system.mem_ctrls.wrQLenPdf::51                      0                       # What write queue length does an incoming req see
system.mem_ctrls.wrQLenPdf::52                      0                       # What write queue length does an incoming req see
system.mem_ctrls.wrQLenPdf::53                      0                       # What write queue length does an incoming req see
system.mem_ctrls.wrQLenPdf::54                      0                       # What write queue length does an incoming req see
system.mem_ctrls.wrQLenPdf::55                      0                       # What write queue length does an incoming req see
system.mem_ctrls.wrQLenPdf::56                      0                       # What write queue length does an incoming req see
system.mem_ctrls.wrQLenPdf::57                      0                       # What write queue length does an incoming req see
system.mem_ctrls.wrQLenPdf::58                      0                       # What write queue length does an incoming req see
system.mem_ctrls.wrQLenPdf::59                      0                       # What write queue length does an incoming req see
system.mem_ctrls.wrQLenPdf::60                      0                       # What write queue length does an incoming req see
system.mem_ctrls.wrQLenPdf::61                      0                       # What write queue length does an incoming req see
system.mem_ctrls.wrQLenPdf::62                      0                       # What write queue length does an incoming req see
system.mem_ctrls.wrQLenPdf::63                      0                       # What write queue length does an incoming req see
system.mem_ctrls.bytesPerActivate::samples        76571                       # Bytes accessed per row activation
system.mem_ctrls.bytesPerActivate::mean     97.204007                       # Bytes accessed per row activation
system.mem_ctrls.bytesPerActivate::gmean    86.649471                       # Bytes accessed per row activation
system.mem_ctrls.bytesPerActivate::stdev    55.377420                       # Bytes accessed per row activation
system.mem_ctrls.bytesPerActivate::64-127        49870     65.13%     65.13% # Bytes accessed per row activation
system.mem_ctrls.bytesPerActivate::128-191        17795     23.24%     88.37% # Bytes accessed per row activation
system.mem_ctrls.bytesPerActivate::192-255         6038      7.89%     96.25% # Bytes accessed per row activation
system.mem_ctrls.bytesPerActivate::256-319         2008      2.62%     98.88% # Bytes accessed per row activation
system.mem_ctrls.bytesPerActivate::320-383          620      0.81%     99.69% # Bytes accessed per row activation
system.mem_ctrls.bytesPerActivate::384-447          161      0.21%     99.90% # Bytes accessed per row activation
system.mem_ctrls.bytesPerActivate::448-511           49      0.06%     99.96% # Bytes accessed per row activation
system.mem_ctrls.bytesPerActivate::512-575           14      0.02%     99.98% # Bytes accessed per row activation
system.mem_ctrls.bytesPerActivate::576-639            5      0.01%     99.99% # Bytes accessed per row activation
system.mem_ctrls.bytesPerActivate::640-703            4      0.01%     99.99% # Bytes accessed per row activation
system.mem_ctrls.bytesPerActivate::704-767            2      0.00%     99.99% # Bytes accessed per row activation
system.mem_ctrls.bytesPerActivate::768-831            4      0.01%    100.00% # Bytes accessed per row activation
system.mem_ctrls.bytesPerActivate::960-1023            1      0.00%    100.00% # Bytes accessed per row activation
system.mem_ctrls.bytesPerActivate::total        76571                       # Bytes accessed per row activation
system.mem_ctrls.rdPerTurnAround::samples           37                       # Reads before turning the bus around for writes
system.mem_ctrls.rdPerTurnAround::mean    3201.729730                       # Reads before turning the bus around for writes
system.mem_ctrls.rdPerTurnAround::gmean   3105.722056                       # Reads before turning the bus around for writes
system.mem_ctrls.rdPerTurnAround::stdev    803.356557                       # Reads before turning the bus around for writes
system.mem_ctrls.rdPerTurnAround::1792-2047            2      5.41%      5.41% # Reads before turning the bus around for writes
system.mem_ctrls.rdPerTurnAround::2048-2303            3      8.11%     13.51% # Reads before turning the bus around for writes
system.mem_ctrls.rdPerTurnAround::2304-2559            4     10.81%     24.32% # Reads before turning the bus around for writes
system.mem_ctrls.rdPerTurnAround::2560-2815            4     10.81%     35.14% # Reads before turning the bus around for writes
system.mem_ctrls.rdPerTurnAround::2816-3071            4     10.81%     45.95% # Reads before turning the bus around for writes
system.mem_ctrls.rdPerTurnAround::3072-3327            6     16.22%     62.16% # Reads before turning the bus around for writes
system.mem_ctrls.rdPerTurnAround::3328-3583            2      5.41%     67.57% # Reads before turning the bus around for writes
system.mem_ctrls.rdPerTurnAround::3584-3839            4     10.81%     78.38% # Reads before turning the bus around for writes
system.mem_ctrls.rdPerTurnAround::3840-4095            4     10.81%     89.19% # Reads before turning the bus around for writes
system.mem_ctrls.rdPerTurnAround::4096-4351            1      2.70%     91.89% # Reads before turning the bus around for writes
system.mem_ctrls.rdPerTurnAround::4352-4607            2      5.41%     97.30% # Reads before turning the bus around for writes
system.mem_ctrls.rdPerTurnAround::5376-5631            1      2.70%    100.00% # Reads before turning the bus around for writes
system.mem_ctrls.rdPerTurnAround::total            37                       # Reads before turning the bus around for writes
system.mem_ctrls.wrPerTurnAround::samples           37                       # Writes before turning the bus around for reads
system.mem_ctrls.wrPerTurnAround::mean      16.189189                       # Writes before turning the bus around for reads
system.mem_ctrls.wrPerTurnAround::gmean     16.177154                       # Writes before turning the bus around for reads
system.mem_ctrls.wrPerTurnAround::stdev      0.659875                       # Writes before turning the bus around for reads
system.mem_ctrls.wrPerTurnAround::16               34     91.89%     91.89% # Writes before turning the bus around for reads
system.mem_ctrls.wrPerTurnAround::18                2      5.41%     97.30% # Writes before turning the bus around for reads
system.mem_ctrls.wrPerTurnAround::19                1      2.70%    100.00% # Writes before turning the bus around for reads
system.mem_ctrls.wrPerTurnAround::total            37                       # Writes before turning the bus around for reads
system.mem_ctrls.totQLat                   3196221750                       # Total ticks spent queuing
system.mem_ctrls.totMemAccLat              5365409250                       # Total ticks spent from burst creation until serviced by the DRAM
system.mem_ctrls.totBusLat                  578450000                       # Total ticks spent in databus transfers
system.mem_ctrls.avgQLat                     27627.47                       # Average queueing delay per DRAM burst
system.mem_ctrls.avgBusLat                    5000.00                       # Average bus latency per DRAM burst
system.mem_ctrls.avgMemAccLat                46377.47                       # Average memory access latency per DRAM burst
system.mem_ctrls.avgRdBW                       484.97                       # Average DRAM read bandwidth in MiByte/s
system.mem_ctrls.avgWrBW                         2.51                       # Average achieved write bandwidth in MiByte/s
system.mem_ctrls.avgRdBWSys                    485.28                       # Average system read bandwidth in MiByte/s
system.mem_ctrls.avgWrBWSys                      2.48                       # Average system write bandwidth in MiByte/s
system.mem_ctrls.peakBW                      12800.00                       # Theoretical peak bandwidth in MiByte/s
system.mem_ctrls.busUtil                         3.81                       # Data bus utilization in percentage
system.mem_ctrls.busUtilRead                     3.79                       # Data bus utilization in percentage for reads
system.mem_ctrls.busUtilWrite                    0.02                       # Data bus utilization in percentage for writes
system.mem_ctrls.avgRdQLen                       1.19                       # Average read queue length when enqueuing
system.mem_ctrls.avgWrQLen                      25.04                       # Average write queue length when enqueuing
system.mem_ctrls.readRowHits                    39303                       # Number of row buffer hits during reads
system.mem_ctrls.writeRowHits                     421                       # Number of row buffer hits during writes
system.mem_ctrls.readRowHitRate                 33.97                       # Row buffer hit rate for reads
system.mem_ctrls.writeRowHitRate                71.24                       # Row buffer hit rate for writes
system.mem_ctrls.avgGap                     131212.97                       # Average gap between requests
system.mem_ctrls.pageHitRate                    34.16                       # Row buffer hit rate, read and write combined
system.mem_ctrls_0.actEnergy                264337080                       # Energy for activate commands per rank (pJ)
system.mem_ctrls_0.preEnergy                140513670                       # Energy for precharge commands per rank (pJ)
system.mem_ctrls_0.readEnergy               398933220                       # Energy for read commands per rank (pJ)
system.mem_ctrls_0.writeEnergy                 548100                       # Energy for write commands per rank (pJ)
system.mem_ctrls_0.refreshEnergy         1212070080.000000                       # Energy for refresh commands per rank (pJ)
system.mem_ctrls_0.actBackEnergy           1138418820                       # Energy for active background per rank (pJ)
system.mem_ctrls_0.preBackEnergy             29442240                       # Energy for precharge background per rank (pJ)
system.mem_ctrls_0.actPowerDownEnergy      5094839550                       # Energy for active power-down per rank (pJ)
system.mem_ctrls_0.prePowerDownEnergy       486291840                       # Energy for precharge power-down per rank (pJ)
system.mem_ctrls_0.selfRefreshEnergy         87121980                       # Energy for self refresh per rank (pJ)
system.mem_ctrls_0.totalEnergy             8852516580                       # Total energy per rank (pJ)
system.mem_ctrls_0.averagePower            579.833435                       # Core power per rank (mW)
system.mem_ctrls_0.totalIdleTime          12694033250                       # Total Idle time Per DRAM Rank
system.mem_ctrls_0.memoryStateTime::IDLE     22308000                       # Time in different power states
system.mem_ctrls_0.memoryStateTime::REF     513014000                       # Time in different power states
system.mem_ctrls_0.memoryStateTime::SREF    254862750                       # Time in different power states
system.mem_ctrls_0.memoryStateTime::PRE_PDN   1266422000                       # Time in different power states
system.mem_ctrls_0.memoryStateTime::ACT    2037933875                       # Time in different power states
system.mem_ctrls_0.memoryStateTime::ACT_PDN  11172803500                       # Time in different power states
system.mem_ctrls_1.actEnergy                282337020                       # Energy for activate commands per rank (pJ)
system.mem_ctrls_1.preEnergy                150073275                       # Energy for precharge commands per rank (pJ)
system.mem_ctrls_1.readEnergy               427100520                       # Energy for read commands per rank (pJ)
system.mem_ctrls_1.writeEnergy                2578680                       # Energy for write commands per rank (pJ)
system.mem_ctrls_1.refreshEnergy         1210840800.000000                       # Energy for refresh commands per rank (pJ)
system.mem_ctrls_1.actBackEnergy           1201023630                       # Energy for active background per rank (pJ)
system.mem_ctrls_1.preBackEnergy             27897120                       # Energy for precharge background per rank (pJ)
system.mem_ctrls_1.actPowerDownEnergy      5134150740                       # Energy for active power-down per rank (pJ)
system.mem_ctrls_1.prePowerDownEnergy       440483520                       # Energy for precharge power-down per rank (pJ)
system.mem_ctrls_1.selfRefreshEnergy         54242040                       # Energy for self refresh per rank (pJ)
system.mem_ctrls_1.totalEnergy             8930730705                       # Total energy per rank (pJ)
system.mem_ctrls_1.averagePower            584.956403                       # Core power per rank (mW)
system.mem_ctrls_1.totalIdleTime          12560692375                       # Total Idle time Per DRAM Rank
system.mem_ctrls_1.memoryStateTime::IDLE     18204000                       # Time in different power states
system.mem_ctrls_1.memoryStateTime::REF     512386000                       # Time in different power states
system.mem_ctrls_1.memoryStateTime::SREF    154672500                       # Time in different power states
system.mem_ctrls_1.memoryStateTime::PRE_PDN   1147168000                       # Time in different power states
system.mem_ctrls_1.memoryStateTime::ACT    2175820750                       # Time in different power states
system.mem_ctrls_1.memoryStateTime::ACT_PDN  11259092875                       # Time in different power states
system.pwrStateResidencyTicks::UNDEFINED  15267344125                       # Cumulative time (in ticks) in various power states
system.cpu0.branchPred.lookups                3617664                       # Number of BP lookups
system.cpu0.branchPred.condPredicted          3617664                       # Number of conditional branches predicted
system.cpu0.branchPred.condIncorrect           138996                       # Number of conditional branches incorrect
system.cpu0.branchPred.BTBLookups             2649762                       # Number of BTB lookups
system.cpu0.branchPred.BTBHits                      0                       # Number of BTB hits
system.cpu0.branchPred.BTBCorrect                   0                       # Number of correct BTB predictions (this stat may not work properly.
system.cpu0.branchPred.BTBHitPct             0.000000                       # BTB Hit Percentage
system.cpu0.branchPred.usedRAS                  79291                       # Number of times the RAS was used to get a target.
system.cpu0.branchPred.RASInCorrect             11102                       # Number of incorrect RAS predictions.
system.cpu0.branchPred.indirectLookups        2649762                       # Number of indirect predictor lookups.
system.cpu0.branchPred.indirectHits           1581220                       # Number of indirect target hits.
system.cpu0.branchPred.indirectMisses         1068542                       # Number of indirect misses.
system.cpu0.branchPredindirectMispredicted        37763                       # Number of mispredicted indirect branches.
system.cpu_voltage_domain.voltage                   1                       # Voltage in Volts
system.cpu_clk_domain.clock                       500                       # Clock period in ticks
system.cpu0.dtb.walker.pwrStateResidencyTicks::UNDEFINED  15267344125                       # Cumulative time (in ticks) in various power states
system.cpu0.dtb.rdAccesses                    1736651                       # TLB accesses on read requests
system.cpu0.dtb.wrAccesses                      90448                       # TLB accesses on write requests
system.cpu0.dtb.rdMisses                       387168                       # TLB misses on read requests
system.cpu0.dtb.wrMisses                         1892                       # TLB misses on write requests
system.cpu0.apic_clk_domain.clock                8000                       # Clock period in ticks
system.cpu0.interrupts.pwrStateResidencyTicks::UNDEFINED  15267344125                       # Cumulative time (in ticks) in various power states
system.cpu0.itb.walker.pwrStateResidencyTicks::UNDEFINED  15267344125                       # Cumulative time (in ticks) in various power states
system.cpu0.itb.rdAccesses                          0                       # TLB accesses on read requests
system.cpu0.itb.wrAccesses                    3132876                       # TLB accesses on write requests
system.cpu0.itb.rdMisses                            0                       # TLB misses on read requests
system.cpu0.itb.wrMisses                         6862                       # TLB misses on write requests
system.cpu0.workload.numSyscalls                    1                       # Number of system calls
system.cpu0.pwrStateResidencyTicks::ON    15267344125                       # Cumulative time (in ticks) in various power states
system.cpu0.numCycles                        30534688                       # number of cpu cycles simulated
system.cpu0.numWorkItemsStarted                     0                       # number of work items this cpu started
system.cpu0.numWorkItemsCompleted                   0                       # number of work items this cpu completed
system.cpu0.fetch.icacheStallCycles           3193521                       # Number of cycles fetch is stalled on an Icache miss
system.cpu0.fetch.Insts                      10247752                       # Number of instructions fetch has processed
system.cpu0.fetch.Branches                    3617664                       # Number of branches that fetch encountered
system.cpu0.fetch.predictedBranches           1660511                       # Number of branches that fetch has predicted taken
system.cpu0.fetch.Cycles                     27120231                       # Number of cycles fetch has run and was not squashing or blocked
system.cpu0.fetch.SquashCycles                 282736                       # Number of cycles fetch has spent squashing
system.cpu0.fetch.TlbCycles                      1369                       # Number of cycles fetch has spent waiting for tlb
system.cpu0.fetch.MiscStallCycles                1583                       # Number of cycles fetch has spent waiting on interrupts, or bad addresses, or out of MSHRs
system.cpu0.fetch.PendingTrapStallCycles        53843                       # Number of stall cycles due to pending traps
system.cpu0.fetch.CacheLines                  3126014                       # Number of cache lines fetched
system.cpu0.fetch.IcacheSquashes                19980                       # Number of outstanding Icache misses that were squashed
system.cpu0.fetch.ItlbSquashes                     11                       # Number of outstanding ITLB misses that were squashed
system.cpu0.fetch.rateDist::samples          30511915                       # Number of instructions fetched each cycle (Total)
system.cpu0.fetch.rateDist::mean             0.674178                       # Number of instructions fetched each cycle (Total)
system.cpu0.fetch.rateDist::stdev            2.002775                       # Number of instructions fetched each cycle (Total)
system.cpu0.fetch.rateDist::underflows              0      0.00%      0.00% # Number of instructions fetched each cycle (Total)
system.cpu0.fetch.rateDist::0                26473812     86.77%     86.77% # Number of instructions fetched each cycle (Total)
system.cpu0.fetch.rateDist::1                   28815      0.09%     86.86% # Number of instructions fetched each cycle (Total)
system.cpu0.fetch.rateDist::2                 1580367      5.18%     92.04% # Number of instructions fetched each cycle (Total)
system.cpu0.fetch.rateDist::3                   43963      0.14%     92.18% # Number of instructions fetched each cycle (Total)
system.cpu0.fetch.rateDist::4                  275061      0.90%     93.09% # Number of instructions fetched each cycle (Total)
system.cpu0.fetch.rateDist::5                  112311      0.37%     93.45% # Number of instructions fetched each cycle (Total)
system.cpu0.fetch.rateDist::6                  178213      0.58%     94.04% # Number of instructions fetched each cycle (Total)
system.cpu0.fetch.rateDist::7                   37034      0.12%     94.16% # Number of instructions fetched each cycle (Total)
system.cpu0.fetch.rateDist::8                 1782339      5.84%    100.00% # Number of instructions fetched each cycle (Total)
system.cpu0.fetch.rateDist::overflows               0      0.00%    100.00% # Number of instructions fetched each cycle (Total)
system.cpu0.fetch.rateDist::min_value               0                       # Number of instructions fetched each cycle (Total)
system.cpu0.fetch.rateDist::max_value               8                       # Number of instructions fetched each cycle (Total)
system.cpu0.fetch.rateDist::total            30511915                       # Number of instructions fetched each cycle (Total)
system.cpu0.fetch.branchRate                 0.118477                       # Number of branch fetches per cycle
system.cpu0.fetch.rate                       0.335610                       # Number of inst fetches per cycle
system.cpu0.decode.IdleCycles                 1598123                       # Number of cycles decode is idle
system.cpu0.decode.BlockedCycles             26074972                       # Number of cycles decode is blocked
system.cpu0.decode.RunCycles                  2013588                       # Number of cycles decode is running
system.cpu0.decode.UnblockCycles               683864                       # Number of cycles decode is unblocking
system.cpu0.decode.SquashCycles                141368                       # Number of cycles decode is squashing
system.cpu0.decode.DecodedInsts              17281699                       # Number of instructions handled by decode
system.cpu0.rename.SquashCycles                141368                       # Number of cycles rename is squashing
system.cpu0.rename.IdleCycles                 1834675                       # Number of cycles rename is idle
system.cpu0.rename.BlockCycles               23624139                       # Number of cycles rename is blocking
system.cpu0.rename.serializeStallCycles         23192                       # count of cycles rename stalled for serializing inst
system.cpu0.rename.RunCycles                  2316206                       # Number of cycles rename is running
system.cpu0.rename.UnblockCycles              2572335                       # Number of cycles rename is unblocking
system.cpu0.rename.RenamedInsts              16638279                       # Number of instructions processed by rename
system.cpu0.rename.ROBFullEvents                73700                       # Number of times rename has blocked due to ROB full
system.cpu0.rename.IQFullEvents               2232982                       # Number of times rename has blocked due to IQ full
system.cpu0.rename.LQFullEvents                232084                       # Number of times rename has blocked due to LQ full
system.cpu0.rename.SQFullEvents                 14236                       # Number of times rename has blocked due to SQ full
system.cpu0.rename.RenamedOperands           19881000                       # Number of destination operands rename has renamed
system.cpu0.rename.RenameLookups             46769000                       # Number of register rename lookups that rename has made
system.cpu0.rename.int_rename_lookups        21549144                       # Number of integer rename lookups
system.cpu0.rename.fp_rename_lookups            76101                       # Number of floating rename lookups
system.cpu0.rename.CommittedMaps              7542906                       # Number of HB maps that are committed
system.cpu0.rename.UndoneMaps                12338093                       # Number of HB maps that are undone due to squashing
system.cpu0.rename.serializingInsts               549                       # count of serializing insts renamed
system.cpu0.rename.tempSerializingInsts           658                       # count of temporary serializing insts renamed
system.cpu0.rename.skidInsts                  4344431                       # count of insts added to the skid buffer
system.cpu0.memDep0.insertedLoads             3069189                       # Number of loads inserted to the mem dependence unit.
system.cpu0.memDep0.insertedStores             132940                       # Number of stores inserted to the mem dependence unit.
system.cpu0.memDep0.conflictingLoads             6499                       # Number of conflicting loads.
system.cpu0.memDep0.conflictingStores            8806                       # Number of conflicting stores.
system.cpu0.iq.iqInstsAdded                  15876207                       # Number of instructions added to the IQ (excludes non-spec)
system.cpu0.iq.iqNonSpecInstsAdded               7679                       # Number of non-speculative instructions added to the IQ
system.cpu0.iq.iqInstsIssued                 11366825                       # Number of instructions issued
system.cpu0.iq.iqSquashedInstsIssued            13341                       # Number of squashed instructions issued
system.cpu0.iq.iqSquashedInstsExamined        9587651                       # Number of squashed instructions iterated over during squash; mainly for profiling
system.cpu0.iq.iqSquashedOperandsExamined     20908347                       # Number of squashed operands that are examined and possibly removed from graph
system.cpu0.iq.iqSquashedNonSpecRemoved          7678                       # Number of squashed non-spec instructions that were removed
system.cpu0.iq.issued_per_cycle::samples     30511915                       # Number of insts issued each cycle
system.cpu0.iq.issued_per_cycle::mean        0.372537                       # Number of insts issued each cycle
system.cpu0.iq.issued_per_cycle::stdev       1.077904                       # Number of insts issued each cycle
system.cpu0.iq.issued_per_cycle::underflows            0      0.00%      0.00% # Number of insts issued each cycle
system.cpu0.iq.issued_per_cycle::0           25905427     84.90%     84.90% # Number of insts issued each cycle
system.cpu0.iq.issued_per_cycle::1            1749838      5.73%     90.64% # Number of insts issued each cycle
system.cpu0.iq.issued_per_cycle::2             997415      3.27%     93.91% # Number of insts issued each cycle
system.cpu0.iq.issued_per_cycle::3             685869      2.25%     96.15% # Number of insts issued each cycle
system.cpu0.iq.issued_per_cycle::4             700205      2.29%     98.45% # Number of insts issued each cycle
system.cpu0.iq.issued_per_cycle::5             215219      0.71%     99.15% # Number of insts issued each cycle
system.cpu0.iq.issued_per_cycle::6             159913      0.52%     99.68% # Number of insts issued each cycle
system.cpu0.iq.issued_per_cycle::7              56075      0.18%     99.86% # Number of insts issued each cycle
system.cpu0.iq.issued_per_cycle::8              41954      0.14%    100.00% # Number of insts issued each cycle
system.cpu0.iq.issued_per_cycle::overflows            0      0.00%    100.00% # Number of insts issued each cycle
system.cpu0.iq.issued_per_cycle::min_value            0                       # Number of insts issued each cycle
system.cpu0.iq.issued_per_cycle::max_value            8                       # Number of insts issued each cycle
system.cpu0.iq.issued_per_cycle::total       30511915                       # Number of insts issued each cycle
system.cpu0.iq.fu_full::No_OpClass                  0      0.00%      0.00% # attempts to use FU when none available
system.cpu0.iq.fu_full::IntAlu                  21876     69.57%     69.57% # attempts to use FU when none available
system.cpu0.iq.fu_full::IntMult                     0      0.00%     69.57% # attempts to use FU when none available
system.cpu0.iq.fu_full::IntDiv                      0      0.00%     69.57% # attempts to use FU when none available
system.cpu0.iq.fu_full::FloatAdd                 2110      6.71%     76.28% # attempts to use FU when none available
system.cpu0.iq.fu_full::FloatCmp                    0      0.00%     76.28% # attempts to use FU when none available
system.cpu0.iq.fu_full::FloatCvt                    0      0.00%     76.28% # attempts to use FU when none available
system.cpu0.iq.fu_full::FloatMult                   0      0.00%     76.28% # attempts to use FU when none available
system.cpu0.iq.fu_full::FloatMultAcc                0      0.00%     76.28% # attempts to use FU when none available
system.cpu0.iq.fu_full::FloatDiv                    0      0.00%     76.28% # attempts to use FU when none available
system.cpu0.iq.fu_full::FloatMisc                   0      0.00%     76.28% # attempts to use FU when none available
system.cpu0.iq.fu_full::FloatSqrt                   0      0.00%     76.28% # attempts to use FU when none available
system.cpu0.iq.fu_full::SimdAdd                     0      0.00%     76.28% # attempts to use FU when none available
system.cpu0.iq.fu_full::SimdAddAcc                  0      0.00%     76.28% # attempts to use FU when none available
system.cpu0.iq.fu_full::SimdAlu                     0      0.00%     76.28% # attempts to use FU when none available
system.cpu0.iq.fu_full::SimdCmp                     0      0.00%     76.28% # attempts to use FU when none available
system.cpu0.iq.fu_full::SimdCvt                     0      0.00%     76.28% # attempts to use FU when none available
system.cpu0.iq.fu_full::SimdMisc                    0      0.00%     76.28% # attempts to use FU when none available
system.cpu0.iq.fu_full::SimdMult                    0      0.00%     76.28% # attempts to use FU when none available
system.cpu0.iq.fu_full::SimdMultAcc                 0      0.00%     76.28% # attempts to use FU when none available
system.cpu0.iq.fu_full::SimdShift                   0      0.00%     76.28% # attempts to use FU when none available
system.cpu0.iq.fu_full::SimdShiftAcc                0      0.00%     76.28% # attempts to use FU when none available
system.cpu0.iq.fu_full::SimdSqrt                    0      0.00%     76.28% # attempts to use FU when none available
system.cpu0.iq.fu_full::SimdFloatAdd                0      0.00%     76.28% # attempts to use FU when none available
system.cpu0.iq.fu_full::SimdFloatAlu                0      0.00%     76.28% # attempts to use FU when none available
system.cpu0.iq.fu_full::SimdFloatCmp                0      0.00%     76.28% # attempts to use FU when none available
system.cpu0.iq.fu_full::SimdFloatCvt                0      0.00%     76.28% # attempts to use FU when none available
system.cpu0.iq.fu_full::SimdFloatDiv                0      0.00%     76.28% # attempts to use FU when none available
system.cpu0.iq.fu_full::SimdFloatMisc               0      0.00%     76.28% # attempts to use FU when none available
system.cpu0.iq.fu_full::SimdFloatMult               0      0.00%     76.28% # attempts to use FU when none available
system.cpu0.iq.fu_full::SimdFloatMultAcc            0      0.00%     76.28% # attempts to use FU when none available
system.cpu0.iq.fu_full::SimdFloatSqrt               0      0.00%     76.28% # attempts to use FU when none available
system.cpu0.iq.fu_full::MemRead                  6452     20.52%     96.79% # attempts to use FU when none available
system.cpu0.iq.fu_full::MemWrite                  535      1.70%     98.50% # attempts to use FU when none available
system.cpu0.iq.fu_full::FloatMemRead              284      0.90%     99.40% # attempts to use FU when none available
system.cpu0.iq.fu_full::FloatMemWrite             189      0.60%    100.00% # attempts to use FU when none available
system.cpu0.iq.fu_full::IprAccess                   0      0.00%    100.00% # attempts to use FU when none available
system.cpu0.iq.fu_full::InstPrefetch                0      0.00%    100.00% # attempts to use FU when none available
system.cpu0.iq.FU_type_0::No_OpClass            29448      0.26%      0.26% # Type of FU issued
system.cpu0.iq.FU_type_0::IntAlu              9369389     82.43%     82.69% # Type of FU issued
system.cpu0.iq.FU_type_0::IntMult                1722      0.02%     82.70% # Type of FU issued
system.cpu0.iq.FU_type_0::IntDiv                18288      0.16%     82.86% # Type of FU issued
system.cpu0.iq.FU_type_0::FloatAdd              27084      0.24%     83.10% # Type of FU issued
system.cpu0.iq.FU_type_0::FloatCmp                  0      0.00%     83.10% # Type of FU issued
system.cpu0.iq.FU_type_0::FloatCvt                  0      0.00%     83.10% # Type of FU issued
system.cpu0.iq.FU_type_0::FloatMult                 0      0.00%     83.10% # Type of FU issued
system.cpu0.iq.FU_type_0::FloatMultAcc              0      0.00%     83.10% # Type of FU issued
system.cpu0.iq.FU_type_0::FloatDiv                  0      0.00%     83.10% # Type of FU issued
system.cpu0.iq.FU_type_0::FloatMisc                 0      0.00%     83.10% # Type of FU issued
system.cpu0.iq.FU_type_0::FloatSqrt                 0      0.00%     83.10% # Type of FU issued
system.cpu0.iq.FU_type_0::SimdAdd                   0      0.00%     83.10% # Type of FU issued
system.cpu0.iq.FU_type_0::SimdAddAcc                0      0.00%     83.10% # Type of FU issued
system.cpu0.iq.FU_type_0::SimdAlu                   0      0.00%     83.10% # Type of FU issued
system.cpu0.iq.FU_type_0::SimdCmp                   0      0.00%     83.10% # Type of FU issued
system.cpu0.iq.FU_type_0::SimdCvt                   0      0.00%     83.10% # Type of FU issued
system.cpu0.iq.FU_type_0::SimdMisc                  0      0.00%     83.10% # Type of FU issued
system.cpu0.iq.FU_type_0::SimdMult                  0      0.00%     83.10% # Type of FU issued
system.cpu0.iq.FU_type_0::SimdMultAcc               0      0.00%     83.10% # Type of FU issued
system.cpu0.iq.FU_type_0::SimdShift                 0      0.00%     83.10% # Type of FU issued
system.cpu0.iq.FU_type_0::SimdShiftAcc              0      0.00%     83.10% # Type of FU issued
system.cpu0.iq.FU_type_0::SimdSqrt                  0      0.00%     83.10% # Type of FU issued
system.cpu0.iq.FU_type_0::SimdFloatAdd              0      0.00%     83.10% # Type of FU issued
system.cpu0.iq.FU_type_0::SimdFloatAlu              0      0.00%     83.10% # Type of FU issued
system.cpu0.iq.FU_type_0::SimdFloatCmp              0      0.00%     83.10% # Type of FU issued
system.cpu0.iq.FU_type_0::SimdFloatCvt              0      0.00%     83.10% # Type of FU issued
system.cpu0.iq.FU_type_0::SimdFloatDiv              0      0.00%     83.10% # Type of FU issued
system.cpu0.iq.FU_type_0::SimdFloatMisc             0      0.00%     83.10% # Type of FU issued
system.cpu0.iq.FU_type_0::SimdFloatMult             0      0.00%     83.10% # Type of FU issued
system.cpu0.iq.FU_type_0::SimdFloatMultAcc            0      0.00%     83.10% # Type of FU issued
system.cpu0.iq.FU_type_0::SimdFloatSqrt             0      0.00%     83.10% # Type of FU issued
system.cpu0.iq.FU_type_0::MemRead             1817993     15.99%     99.09% # Type of FU issued
system.cpu0.iq.FU_type_0::MemWrite              96867      0.85%     99.95% # Type of FU issued
system.cpu0.iq.FU_type_0::FloatMemRead           5307      0.05%     99.99% # Type of FU issued
system.cpu0.iq.FU_type_0::FloatMemWrite           727      0.01%    100.00% # Type of FU issued
system.cpu0.iq.FU_type_0::IprAccess                 0      0.00%    100.00% # Type of FU issued
system.cpu0.iq.FU_type_0::InstPrefetch              0      0.00%    100.00% # Type of FU issued
system.cpu0.iq.FU_type_0::total              11366825                       # Type of FU issued
system.cpu0.iq.rate                          0.372259                       # Inst issue rate
system.cpu0.iq.fu_busy_cnt                      31446                       # FU busy when requested
system.cpu0.iq.fu_busy_rate                  0.002766                       # FU busy rate (busy events/executed inst)
system.cpu0.iq.int_inst_queue_reads          53220779                       # Number of integer instruction queue reads
system.cpu0.iq.int_inst_queue_writes         25404374                       # Number of integer instruction queue writes
system.cpu0.iq.int_inst_queue_wakeup_accesses     10922958                       # Number of integer instruction queue wakeup accesses
system.cpu0.iq.fp_inst_queue_reads              69573                       # Number of floating instruction queue reads
system.cpu0.iq.fp_inst_queue_writes             67180                       # Number of floating instruction queue writes
system.cpu0.iq.fp_inst_queue_wakeup_accesses        29845                       # Number of floating instruction queue wakeup accesses
system.cpu0.iq.vec_inst_queue_reads                 0                       # Number of vector instruction queue reads
system.cpu0.iq.vec_inst_queue_writes                0                       # Number of vector instruction queue writes
system.cpu0.iq.vec_inst_queue_wakeup_accesses            0                       # Number of vector instruction queue wakeup accesses
system.cpu0.iq.int_alu_accesses              11333066                       # Number of integer alu accesses
system.cpu0.iq.fp_alu_accesses                  35757                       # Number of floating point alu accesses
system.cpu0.iq.vec_alu_accesses                     0                       # Number of vector alu accesses
system.cpu0.iew.lsq.thread0.forwLoads            8574                       # Number of loads that had data forwarded from stores
system.cpu0.iew.lsq.thread0.invAddrLoads            0                       # Number of loads ignored due to an invalid address
system.cpu0.iew.lsq.thread0.squashedLoads      1856869                       # Number of loads squashed
system.cpu0.iew.lsq.thread0.ignoredResponses          284                       # Number of memory responses ignored because the instruction is squashed
system.cpu0.iew.lsq.thread0.memOrderViolation           17                       # Number of memory ordering violations
system.cpu0.iew.lsq.thread0.squashedStores        79569                       # Number of stores squashed
system.cpu0.iew.lsq.thread0.invAddrSwpfs            0                       # Number of software prefetches ignored due to an invalid address
system.cpu0.iew.lsq.thread0.blockedLoads            0                       # Number of blocked loads due to partial load-store forwarding
system.cpu0.iew.lsq.thread0.rescheduledLoads           70                       # Number of loads that were rescheduled
system.cpu0.iew.lsq.thread0.cacheBlocked         5419                       # Number of times an access to memory failed due to the cache being blocked
system.cpu0.iew.iewIdleCycles                       0                       # Number of cycles IEW is idle
system.cpu0.iew.iewSquashCycles                141368                       # Number of cycles IEW is squashing
system.cpu0.iew.iewBlockCycles               21052040                       # Number of cycles IEW is blocking
system.cpu0.iew.iewUnblockCycles               448956                       # Number of cycles IEW is unblocking
system.cpu0.iew.iewDispatchedInsts           15883886                       # Number of instructions dispatched to IQ
system.cpu0.iew.iewDispSquashedInsts             7404                       # Number of squashed instructions skipped by dispatch
system.cpu0.iew.iewDispLoadInsts              3069189                       # Number of dispatched load instructions
system.cpu0.iew.iewDispStoreInsts              132940                       # Number of dispatched store instructions
system.cpu0.iew.iewDispNonSpecInsts              2866                       # Number of dispatched non-speculative instructions
system.cpu0.iew.iewIQFullEvents                 29894                       # Number of times the IQ has become full, causing a stall
system.cpu0.iew.iewLSQFullEvents                53744                       # Number of times the LSQ has become full, causing a stall
system.cpu0.iew.memOrderViolationEvents            17                       # Number of memory order violations
system.cpu0.iew.predictedTakenIncorrect         82111                       # Number of branches that were predicted taken incorrectly
system.cpu0.iew.predictedNotTakenIncorrect        72293                       # Number of branches that were predicted not taken incorrectly
system.cpu0.iew.branchMispredicts              154404                       # Number of branch mispredicts detected at execute
system.cpu0.iew.iewExecutedInsts             11168665                       # Number of executed instructions
system.cpu0.iew.iewExecLoadInsts              1736176                       # Number of load instructions executed
system.cpu0.iew.iewExecSquashedInsts           198160                       # Number of squashed instructions skipped in execute
system.cpu0.iew.exec_swp                            0                       # number of swp insts executed
system.cpu0.iew.exec_nop                            0                       # number of nop insts executed
system.cpu0.iew.exec_refs                     1826584                       # number of memory reference insts executed
system.cpu0.iew.exec_branches                 1381106                       # Number of branches executed
system.cpu0.iew.exec_stores                     90408                       # Number of stores executed
system.cpu0.iew.exec_rate                    0.365770                       # Inst execution rate
system.cpu0.iew.wb_sent                      10983729                       # cumulative count of insts sent to commit
system.cpu0.iew.wb_count                     10952803                       # cumulative count of insts written-back
system.cpu0.iew.wb_producers                  8151648                       # num instructions producing a value
system.cpu0.iew.wb_consumers                 12910116                       # num instructions consuming a value
system.cpu0.iew.wb_rate                      0.358700                       # insts written-back per cycle
system.cpu0.iew.wb_fanout                    0.631416                       # average fanout of values written-back
system.cpu0.commit.commitSquashedInsts        9588468                       # The number of squashed insts skipped by commit
system.cpu0.commit.commitNonSpecStalls              1                       # The number of times commit has been forced to stall to communicate backwards
system.cpu0.commit.branchMispredicts           141358                       # The number of times a branch was mispredicted
system.cpu0.commit.committed_per_cycle::samples     29178540                       # Number of insts commited each cycle
system.cpu0.commit.committed_per_cycle::mean     0.215783                       # Number of insts commited each cycle
system.cpu0.commit.committed_per_cycle::stdev     0.840826                       # Number of insts commited each cycle
system.cpu0.commit.committed_per_cycle::underflows            0      0.00%      0.00% # Number of insts commited each cycle
system.cpu0.commit.committed_per_cycle::0     26454663     90.66%     90.66% # Number of insts commited each cycle
system.cpu0.commit.committed_per_cycle::1      1251031      4.29%     94.95% # Number of insts commited each cycle
system.cpu0.commit.committed_per_cycle::2       296467      1.02%     95.97% # Number of insts commited each cycle
system.cpu0.commit.committed_per_cycle::3       819928      2.81%     98.78% # Number of insts commited each cycle
system.cpu0.commit.committed_per_cycle::4       140740      0.48%     99.26% # Number of insts commited each cycle
system.cpu0.commit.committed_per_cycle::5        89267      0.31%     99.57% # Number of insts commited each cycle
system.cpu0.commit.committed_per_cycle::6        10373      0.04%     99.60% # Number of insts commited each cycle
system.cpu0.commit.committed_per_cycle::7         7615      0.03%     99.63% # Number of insts commited each cycle
system.cpu0.commit.committed_per_cycle::8       108456      0.37%    100.00% # Number of insts commited each cycle
system.cpu0.commit.committed_per_cycle::overflows            0      0.00%    100.00% # Number of insts commited each cycle
system.cpu0.commit.committed_per_cycle::min_value            0                       # Number of insts commited each cycle
system.cpu0.commit.committed_per_cycle::max_value            8                       # Number of insts commited each cycle
system.cpu0.commit.committed_per_cycle::total     29178540                       # Number of insts commited each cycle
system.cpu0.commit.committedInsts             3151090                       # Number of instructions committed
system.cpu0.commit.committedOps               6296235                       # Number of ops (including micro ops) committed
system.cpu0.commit.swp_count                        0                       # Number of s/w prefetches committed
system.cpu0.commit.refs                       1265691                       # Number of memory references committed
system.cpu0.commit.loads                      1212320                       # Number of loads committed
system.cpu0.commit.membars                          0                       # Number of memory barriers committed
system.cpu0.commit.branches                   1151532                       # Number of branches committed
system.cpu0.commit.vec_insts                        0                       # Number of committed Vector instructions.
system.cpu0.commit.fp_insts                     21344                       # Number of committed floating point instructions.
system.cpu0.commit.int_insts                  6274702                       # Number of committed integer instructions.
system.cpu0.commit.function_calls                9404                       # Number of function calls committed.
system.cpu0.commit.op_class_0::No_OpClass         6396      0.10%      0.10% # Class of committed instruction
system.cpu0.commit.op_class_0::IntAlu         4990100     79.26%     79.36% # Class of committed instruction
system.cpu0.commit.op_class_0::IntMult            376      0.01%     79.36% # Class of committed instruction
system.cpu0.commit.op_class_0::IntDiv           15432      0.25%     79.61% # Class of committed instruction
system.cpu0.commit.op_class_0::FloatAdd         18240      0.29%     79.90% # Class of committed instruction
system.cpu0.commit.op_class_0::FloatCmp             0      0.00%     79.90% # Class of committed instruction
system.cpu0.commit.op_class_0::FloatCvt             0      0.00%     79.90% # Class of committed instruction
system.cpu0.commit.op_class_0::FloatMult            0      0.00%     79.90% # Class of committed instruction
system.cpu0.commit.op_class_0::FloatMultAcc            0      0.00%     79.90% # Class of committed instruction
system.cpu0.commit.op_class_0::FloatDiv             0      0.00%     79.90% # Class of committed instruction
system.cpu0.commit.op_class_0::FloatMisc            0      0.00%     79.90% # Class of committed instruction
system.cpu0.commit.op_class_0::FloatSqrt            0      0.00%     79.90% # Class of committed instruction
system.cpu0.commit.op_class_0::SimdAdd              0      0.00%     79.90% # Class of committed instruction
system.cpu0.commit.op_class_0::SimdAddAcc            0      0.00%     79.90% # Class of committed instruction
system.cpu0.commit.op_class_0::SimdAlu              0      0.00%     79.90% # Class of committed instruction
system.cpu0.commit.op_class_0::SimdCmp              0      0.00%     79.90% # Class of committed instruction
system.cpu0.commit.op_class_0::SimdCvt              0      0.00%     79.90% # Class of committed instruction
system.cpu0.commit.op_class_0::SimdMisc             0      0.00%     79.90% # Class of committed instruction
system.cpu0.commit.op_class_0::SimdMult             0      0.00%     79.90% # Class of committed instruction
system.cpu0.commit.op_class_0::SimdMultAcc            0      0.00%     79.90% # Class of committed instruction
system.cpu0.commit.op_class_0::SimdShift            0      0.00%     79.90% # Class of committed instruction
system.cpu0.commit.op_class_0::SimdShiftAcc            0      0.00%     79.90% # Class of committed instruction
system.cpu0.commit.op_class_0::SimdSqrt             0      0.00%     79.90% # Class of committed instruction
system.cpu0.commit.op_class_0::SimdFloatAdd            0      0.00%     79.90% # Class of committed instruction
system.cpu0.commit.op_class_0::SimdFloatAlu            0      0.00%     79.90% # Class of committed instruction
system.cpu0.commit.op_class_0::SimdFloatCmp            0      0.00%     79.90% # Class of committed instruction
system.cpu0.commit.op_class_0::SimdFloatCvt            0      0.00%     79.90% # Class of committed instruction
system.cpu0.commit.op_class_0::SimdFloatDiv            0      0.00%     79.90% # Class of committed instruction
system.cpu0.commit.op_class_0::SimdFloatMisc            0      0.00%     79.90% # Class of committed instruction
system.cpu0.commit.op_class_0::SimdFloatMult            0      0.00%     79.90% # Class of committed instruction
system.cpu0.commit.op_class_0::SimdFloatMultAcc            0      0.00%     79.90% # Class of committed instruction
system.cpu0.commit.op_class_0::SimdFloatSqrt            0      0.00%     79.90% # Class of committed instruction
system.cpu0.commit.op_class_0::MemRead        1209216     19.21%     99.10% # Class of committed instruction
system.cpu0.commit.op_class_0::MemWrite         53371      0.85%     99.95% # Class of committed instruction
system.cpu0.commit.op_class_0::FloatMemRead         3104      0.05%    100.00% # Class of committed instruction
system.cpu0.commit.op_class_0::FloatMemWrite            0      0.00%    100.00% # Class of committed instruction
system.cpu0.commit.op_class_0::IprAccess            0      0.00%    100.00% # Class of committed instruction
system.cpu0.commit.op_class_0::InstPrefetch            0      0.00%    100.00% # Class of committed instruction
system.cpu0.commit.op_class_0::total          6296235                       # Class of committed instruction
system.cpu0.commit.bw_lim_events               108456                       # number cycles where commit BW limit reached
system.cpu0.rob.rob_reads                    44954787                       # The number of ROB reads
system.cpu0.rob.rob_writes                   33105924                       # The number of ROB writes
system.cpu0.timesIdled                            301                       # Number of times that the entire CPU went into an idle state and unscheduled itself
system.cpu0.idleCycles                          22773                       # Total number of cycles that the CPU has spent unscheduled due to idling
system.cpu0.committedInsts                    3151090                       # Number of Instructions Simulated
system.cpu0.committedOps                      6296235                       # Number of Ops (including micro ops) Simulated
system.cpu0.cpi                              9.690199                       # CPI: Cycles Per Instruction
system.cpu0.cpi_total                        9.690199                       # CPI: Total CPI of All Threads
system.cpu0.ipc                              0.103197                       # IPC: Instructions Per Cycle
system.cpu0.ipc_total                        0.103197                       # IPC: Total IPC of All Threads
system.cpu0.int_regfile_reads                10965807                       # number of integer regfile reads
system.cpu0.int_regfile_writes                9493554                       # number of integer regfile writes
system.cpu0.fp_regfile_reads                    53236                       # number of floating regfile reads
system.cpu0.fp_regfile_writes                   26433                       # number of floating regfile writes
system.cpu0.cc_regfile_reads                  7393536                       # number of cc regfile reads
system.cpu0.cc_regfile_writes                 3045088                       # number of cc regfile writes
system.cpu0.misc_regfile_reads                6006682                       # number of misc regfile reads
system.cpu0.dcache.tags.pwrStateResidencyTicks::UNDEFINED  15267344125                       # Cumulative time (in ticks) in various power states
system.cpu0.dcache.tags.replacements           647144                       # number of replacements
system.cpu0.dcache.tags.tagsinuse                 512                       # Cycle average of tags in use
system.cpu0.dcache.tags.total_refs             675115                       # Total number of references to valid blocks.
system.cpu0.dcache.tags.sampled_refs           647144                       # Sample count of references to valid blocks.
system.cpu0.dcache.tags.avg_refs             1.043222                       # Average number of references to valid blocks.
system.cpu0.dcache.tags.warmup_cycle                0                       # Cycle when the warmup percentage was hit.
system.cpu0.dcache.tags.occ_blocks::cpu0.data          512                       # Average occupied blocks per requestor
system.cpu0.dcache.tags.occ_percent::cpu0.data            1                       # Average percentage of cache occupancy
system.cpu0.dcache.tags.occ_percent::total            1                       # Average percentage of cache occupancy
system.cpu0.dcache.tags.occ_task_id_blocks::1024          512                       # Occupied blocks per task id
system.cpu0.dcache.tags.age_task_id_blocks_1024::0          167                       # Occupied blocks per task id
system.cpu0.dcache.tags.age_task_id_blocks_1024::1          345                       # Occupied blocks per task id
system.cpu0.dcache.tags.occ_task_id_percent::1024            1                       # Percentage of cache occupancy per task id
system.cpu0.dcache.tags.tag_accesses          7726816                       # Number of tag accesses
system.cpu0.dcache.tags.data_accesses         7726816                       # Number of data accesses
system.cpu0.dcache.pwrStateResidencyTicks::UNDEFINED  15267344125                       # Cumulative time (in ticks) in various power states
system.cpu0.dcache.ReadReq_hits::cpu0.data       623881                       # number of ReadReq hits
system.cpu0.dcache.ReadReq_hits::total         623881                       # number of ReadReq hits
system.cpu0.dcache.WriteReq_hits::cpu0.data        50985                       # number of WriteReq hits
system.cpu0.dcache.WriteReq_hits::total         50985                       # number of WriteReq hits
system.cpu0.dcache.demand_hits::cpu0.data       674866                       # number of demand (read+write) hits
system.cpu0.dcache.demand_hits::total          674866                       # number of demand (read+write) hits
system.cpu0.dcache.overall_hits::cpu0.data       674866                       # number of overall hits
system.cpu0.dcache.overall_hits::total         674866                       # number of overall hits
system.cpu0.dcache.ReadReq_misses::cpu0.data      1092666                       # number of ReadReq misses
system.cpu0.dcache.ReadReq_misses::total      1092666                       # number of ReadReq misses
system.cpu0.dcache.WriteReq_misses::cpu0.data         2386                       # number of WriteReq misses
system.cpu0.dcache.WriteReq_misses::total         2386                       # number of WriteReq misses
system.cpu0.dcache.demand_misses::cpu0.data      1095052                       # number of demand (read+write) misses
system.cpu0.dcache.demand_misses::total       1095052                       # number of demand (read+write) misses
system.cpu0.dcache.overall_misses::cpu0.data      1095052                       # number of overall misses
system.cpu0.dcache.overall_misses::total      1095052                       # number of overall misses
system.cpu0.dcache.ReadReq_miss_latency::cpu0.data  32454238000                       # number of ReadReq miss cycles
system.cpu0.dcache.ReadReq_miss_latency::total  32454238000                       # number of ReadReq miss cycles
system.cpu0.dcache.WriteReq_miss_latency::cpu0.data     89977496                       # number of WriteReq miss cycles
system.cpu0.dcache.WriteReq_miss_latency::total     89977496                       # number of WriteReq miss cycles
system.cpu0.dcache.demand_miss_latency::cpu0.data  32544215496                       # number of demand (read+write) miss cycles
system.cpu0.dcache.demand_miss_latency::total  32544215496                       # number of demand (read+write) miss cycles
system.cpu0.dcache.overall_miss_latency::cpu0.data  32544215496                       # number of overall miss cycles
system.cpu0.dcache.overall_miss_latency::total  32544215496                       # number of overall miss cycles
system.cpu0.dcache.ReadReq_accesses::cpu0.data      1716547                       # number of ReadReq accesses(hits+misses)
system.cpu0.dcache.ReadReq_accesses::total      1716547                       # number of ReadReq accesses(hits+misses)
system.cpu0.dcache.WriteReq_accesses::cpu0.data        53371                       # number of WriteReq accesses(hits+misses)
system.cpu0.dcache.WriteReq_accesses::total        53371                       # number of WriteReq accesses(hits+misses)
system.cpu0.dcache.demand_accesses::cpu0.data      1769918                       # number of demand (read+write) accesses
system.cpu0.dcache.demand_accesses::total      1769918                       # number of demand (read+write) accesses
system.cpu0.dcache.overall_accesses::cpu0.data      1769918                       # number of overall (read+write) accesses
[...]
system.l2.demand_miss_rate::cpu0.data        0.178880                       # miss rate for demand accesses
system.l2.demand_miss_rate::total            0.178882                       # miss rate for demand accesses
system.l2.overall_miss_rate::cpu0.inst       0.250000                       # miss rate for overall accesses
system.l2.overall_miss_rate::cpu0.data       0.178880                       # miss rate for overall accesses
system.l2.overall_miss_rate::total           0.178882                       # miss rate for overall accesses
system.l2.ReadExReq_avg_miss_latency::cpu0.data 121980.582524                       # average ReadExReq miss latency
system.l2.ReadExReq_avg_miss_latency::total 121980.582524                       # average ReadExReq miss latency
system.l2.ReadCleanReq_avg_miss_latency::cpu0.inst       106125                       # average ReadCleanReq miss latency
system.l2.ReadCleanReq_avg_miss_latency::total       106125                       # average ReadCleanReq miss latency
system.l2.ReadSharedReq_avg_miss_latency::cpu0.data 97739.669923                       # average ReadSharedReq miss latency
system.l2.ReadSharedReq_avg_miss_latency::total 97739.669923                       # average ReadSharedReq miss latency
system.l2.demand_avg_miss_latency::cpu0.inst       106125                       # average overall miss latency
system.l2.demand_avg_miss_latency::cpu0.data 97847.513411                       # average overall miss latency
system.l2.demand_avg_miss_latency::total 97847.799421                       # average overall miss latency
system.l2.overall_avg_miss_latency::cpu0.inst       106125                       # average overall miss latency
system.l2.overall_avg_miss_latency::cpu0.data 97847.513411                       # average overall miss latency
system.l2.overall_avg_miss_latency::total 97847.799421                       # average overall miss latency
system.l2.blocked_cycles::no_mshrs                  0                       # number of cycles access was blocked
system.l2.blocked_cycles::no_targets                0                       # number of cycles access was blocked
system.l2.blocked::no_mshrs                         0                       # number of cycles access was blocked
system.l2.blocked::no_targets                       0                       # number of cycles access was blocked
system.l2.avg_blocked_cycles::no_mshrs            nan                       # average number of cycles each access was blocked
system.l2.avg_blocked_cycles::no_targets          nan                       # average number of cycles each access was blocked
system.l2.writebacks::writebacks                  591                       # number of writebacks
system.l2.writebacks::total                       591                       # number of writebacks
system.l2.ReadExReq_mshr_misses::cpu0.data          515                       # number of ReadExReq MSHR misses
system.l2.ReadExReq_mshr_misses::total            515                       # number of ReadExReq MSHR misses
system.l2.ReadCleanReq_mshr_misses::cpu0.inst            4                       # number of ReadCleanReq MSHR misses
system.l2.ReadCleanReq_mshr_misses::total            4                       # number of ReadCleanReq MSHR misses
system.l2.ReadSharedReq_mshr_misses::cpu0.data       115246                       # number of ReadSharedReq MSHR misses
system.l2.ReadSharedReq_mshr_misses::total       115246                       # number of ReadSharedReq MSHR misses
system.l2.demand_mshr_misses::cpu0.inst             4                       # number of demand (read+write) MSHR misses
system.l2.demand_mshr_misses::cpu0.data        115761                       # number of demand (read+write) MSHR misses
system.l2.demand_mshr_misses::total            115765                       # number of demand (read+write) MSHR misses
system.l2.overall_mshr_misses::cpu0.inst            4                       # number of overall MSHR misses
system.l2.overall_mshr_misses::cpu0.data       115761                       # number of overall MSHR misses
system.l2.overall_mshr_misses::total           115765                       # number of overall MSHR misses
system.l2.ReadExReq_mshr_miss_latency::cpu0.data     57670000                       # number of ReadExReq MSHR miss cycles
system.l2.ReadExReq_mshr_miss_latency::total     57670000                       # number of ReadExReq MSHR miss cycles
system.l2.ReadCleanReq_mshr_miss_latency::cpu0.inst       384500                       # number of ReadCleanReq MSHR miss cycles
system.l2.ReadCleanReq_mshr_miss_latency::total       384500                       # number of ReadCleanReq MSHR miss cycles
system.l2.ReadSharedReq_mshr_miss_latency::cpu0.data  10111646000                       # number of ReadSharedReq MSHR miss cycles
system.l2.ReadSharedReq_mshr_miss_latency::total  10111646000                       # number of ReadSharedReq MSHR miss cycles
system.l2.demand_mshr_miss_latency::cpu0.inst       384500                       # number of demand (read+write) MSHR miss cycles
system.l2.demand_mshr_miss_latency::cpu0.data  10169316000                       # number of demand (read+write) MSHR miss cycles
system.l2.demand_mshr_miss_latency::total  10169700500                       # number of demand (read+write) MSHR miss cycles
system.l2.overall_mshr_miss_latency::cpu0.inst       384500                       # number of overall MSHR miss cycles
system.l2.overall_mshr_miss_latency::cpu0.data  10169316000                       # number of overall MSHR miss cycles
system.l2.overall_mshr_miss_latency::total  10169700500                       # number of overall MSHR miss cycles
system.l2.ReadExReq_mshr_miss_rate::cpu0.data     0.217025                       # mshr miss rate for ReadExReq accesses
system.l2.ReadExReq_mshr_miss_rate::total     0.217025                       # mshr miss rate for ReadExReq accesses
system.l2.ReadCleanReq_mshr_miss_rate::cpu0.inst     0.250000                       # mshr miss rate for ReadCleanReq accesses
system.l2.ReadCleanReq_mshr_miss_rate::total     0.250000                       # mshr miss rate for ReadCleanReq accesses
system.l2.ReadSharedReq_mshr_miss_rate::cpu0.data     0.178739                       # mshr miss rate for ReadSharedReq accesses
system.l2.ReadSharedReq_mshr_miss_rate::total     0.178739                       # mshr miss rate for ReadSharedReq accesses
system.l2.demand_mshr_miss_rate::cpu0.inst     0.250000                       # mshr miss rate for demand accesses
system.l2.demand_mshr_miss_rate::cpu0.data     0.178880                       # mshr miss rate for demand accesses
system.l2.demand_mshr_miss_rate::total       0.178882                       # mshr miss rate for demand accesses
system.l2.overall_mshr_miss_rate::cpu0.inst     0.250000                       # mshr miss rate for overall accesses
system.l2.overall_mshr_miss_rate::cpu0.data     0.178880                       # mshr miss rate for overall accesses
system.l2.overall_mshr_miss_rate::total      0.178882                       # mshr miss rate for overall accesses
system.l2.ReadExReq_avg_mshr_miss_latency::cpu0.data 111980.582524                       # average ReadExReq mshr miss latency
system.l2.ReadExReq_avg_mshr_miss_latency::total 111980.582524                       # average ReadExReq mshr miss latency
system.l2.ReadCleanReq_avg_mshr_miss_latency::cpu0.inst        96125                       # average ReadCleanReq mshr miss latency
system.l2.ReadCleanReq_avg_mshr_miss_latency::total        96125                       # average ReadCleanReq mshr miss latency
system.l2.ReadSharedReq_avg_mshr_miss_latency::cpu0.data 87739.669923                       # average ReadSharedReq mshr miss latency
system.l2.ReadSharedReq_avg_mshr_miss_latency::total 87739.669923                       # average ReadSharedReq mshr miss latency
system.l2.demand_avg_mshr_miss_latency::cpu0.inst        96125                       # average overall mshr miss latency
system.l2.demand_avg_mshr_miss_latency::cpu0.data 87847.513411                       # average overall mshr miss latency
system.l2.demand_avg_mshr_miss_latency::total 87847.799421                       # average overall mshr miss latency
system.l2.overall_avg_mshr_miss_latency::cpu0.inst        96125                       # average overall mshr miss latency
system.l2.overall_avg_mshr_miss_latency::cpu0.data 87847.513411                       # average overall mshr miss latency
system.l2.overall_avg_mshr_miss_latency::total 87847.799421                       # average overall mshr miss latency
system.membus.snoop_filter.tot_requests        231530                       # Total number of requests made to the snoop filter.
system.membus.snoop_filter.hit_single_requests       115768                       # Number of requests hitting in the snoop filter with a single holder of the requested data.
system.membus.snoop_filter.hit_multi_requests            0                       # Number of requests hitting in the snoop filter with multiple (>1) holders of the requested data.
system.membus.snoop_filter.tot_snoops               0                       # Total number of snoops made to the snoop filter.
system.membus.snoop_filter.hit_single_snoops            0                       # Number of snoops hitting in the snoop filter with a single holder of the requested data.
system.membus.snoop_filter.hit_multi_snoops            0                       # Number of snoops hitting in the snoop filter with multiple (>1) holders of the requested data.
system.membus.pwrStateResidencyTicks::UNDEFINED  15267344125                       # Cumulative time (in ticks) in various power states
system.membus.trans_dist::ReadResp             115250                       # Transaction distribution
system.membus.trans_dist::WritebackDirty          591                       # Transaction distribution
system.membus.trans_dist::CleanEvict           115175                       # Transaction distribution
system.membus.trans_dist::ReadExReq               515                       # Transaction distribution
system.membus.trans_dist::ReadExResp              515                       # Transaction distribution
system.membus.trans_dist::ReadSharedReq        115249                       # Transaction distribution
system.membus.pkt_count_system.l2.mem_side::system.mem_ctrls.port       347295                       # Packet count per connected master and slave (bytes)
system.membus.pkt_count_system.l2.mem_side::total       347295                       # Packet count per connected master and slave (bytes)
system.membus.pkt_count::total                 347295                       # Packet count per connected master and slave (bytes)
system.membus.pkt_size_system.l2.mem_side::system.mem_ctrls.port      7446784                       # Cumulative packet size per connected master and slave (bytes)
system.membus.pkt_size_system.l2.mem_side::total      7446784                       # Cumulative packet size per connected master and slave (bytes)
system.membus.pkt_size::total                 7446784                       # Cumulative packet size per connected master and slave (bytes)
system.membus.snoops                                0                       # Total snoops (count)
system.membus.snoopTraffic                          0                       # Total snoop traffic (bytes)
system.membus.snoop_fanout::samples            115764                       # Request fanout histogram
system.membus.snoop_fanout::mean                    0                       # Request fanout histogram
system.membus.snoop_fanout::stdev                   0                       # Request fanout histogram
system.membus.snoop_fanout::underflows              0      0.00%      0.00% # Request fanout histogram
system.membus.snoop_fanout::0                  115764    100.00%    100.00% # Request fanout histogram
system.membus.snoop_fanout::1                       0      0.00%    100.00% # Request fanout histogram
system.membus.snoop_fanout::overflows               0      0.00%    100.00% # Request fanout histogram
system.membus.snoop_fanout::min_value               0                       # Request fanout histogram
system.membus.snoop_fanout::max_value               0                       # Request fanout histogram
system.membus.snoop_fanout::total              115764                       # Request fanout histogram
system.membus.reqLayer12.occupancy          269000000                       # Layer occupancy (ticks)
system.membus.reqLayer12.utilization              1.8                       # Layer utilization (%)
system.membus.respLayer1.occupancy          635318000                       # Layer occupancy (ticks)
system.membus.respLayer1.utilization              4.2                       # Layer utilization (%)
system.tol2bus.snoop_filter.tot_requests      1294320                       # Total number of requests made to the snoop filter.
system.tol2bus.snoop_filter.hit_single_requests       647160                       # Number of requests hitting in the snoop filter with a single holder of the requested data.
system.tol2bus.snoop_filter.hit_multi_requests         1326                       # Number of requests hitting in the snoop filter with multiple (>1) holders of the requested data.
system.tol2bus.snoop_filter.tot_snoops              6                       # Total number of snoops made to the snoop filter.
system.tol2bus.snoop_filter.hit_single_snoops            6                       # Number of snoops hitting in the snoop filter with a single holder of the requested data.
system.tol2bus.snoop_filter.hit_multi_snoops            0                       # Number of snoops hitting in the snoop filter with multiple (>1) holders of the requested data.
system.tol2bus.pwrStateResidencyTicks::UNDEFINED  15267344125                       # Cumulative time (in ticks) in various power states
system.tol2bus.trans_dist::ReadResp            644787                       # Transaction distribution
system.tol2bus.trans_dist::WritebackDirty        11944                       # Transaction distribution
system.tol2bus.trans_dist::WritebackClean           16                       # Transaction distribution
system.tol2bus.trans_dist::CleanEvict          750972                       # Transaction distribution
system.tol2bus.trans_dist::ReadExReq             2373                       # Transaction distribution
system.tol2bus.trans_dist::ReadExResp            2373                       # Transaction distribution
system.tol2bus.trans_dist::ReadCleanReq            16                       # Transaction distribution
system.tol2bus.trans_dist::ReadSharedReq       644771                       # Transaction distribution
system.tol2bus.pkt_count_system.cpu0.icache.mem_side::system.l2.cpu_side           48                       # Packet count per connected master and slave (bytes)
system.tol2bus.pkt_count_system.cpu0.dcache.mem_side::system.l2.cpu_side      1941432                       # Packet count per connected master and slave (bytes)
system.tol2bus.pkt_count::total               1941480                       # Packet count per connected master and slave (bytes)
system.tol2bus.pkt_size_system.cpu0.icache.mem_side::system.l2.cpu_side         2048                       # Cumulative packet size per connected master and slave (bytes)
system.tol2bus.pkt_size_system.cpu0.dcache.mem_side::system.l2.cpu_side     42143808                       # Cumulative packet size per connected master and slave (bytes)
system.tol2bus.pkt_size::total               42145856                       # Cumulative packet size per connected master and slave (bytes)
system.tol2bus.snoops                          115772                       # Total snoops (count)
system.tol2bus.snoopTraffic                     37824                       # Total snoop traffic (bytes)
system.tol2bus.snoop_fanout::samples           762932                       # Request fanout histogram
system.tol2bus.snoop_fanout::mean            0.001746                       # Request fanout histogram
system.tol2bus.snoop_fanout::stdev           0.041747                       # Request fanout histogram
system.tol2bus.snoop_fanout::underflows             0      0.00%      0.00% # Request fanout histogram
system.tol2bus.snoop_fanout::0                 761600     99.83%     99.83% # Request fanout histogram
system.tol2bus.snoop_fanout::1                   1332      0.17%    100.00% # Request fanout histogram
system.tol2bus.snoop_fanout::2                      0      0.00%    100.00% # Request fanout histogram
system.tol2bus.snoop_fanout::3                      0      0.00%    100.00% # Request fanout histogram
system.tol2bus.snoop_fanout::4                      0      0.00%    100.00% # Request fanout histogram
system.tol2bus.snoop_fanout::5                      0      0.00%    100.00% # Request fanout histogram
system.tol2bus.snoop_fanout::6                      0      0.00%    100.00% # Request fanout histogram
system.tol2bus.snoop_fanout::7                      0      0.00%    100.00% # Request fanout histogram
system.tol2bus.snoop_fanout::8                      0      0.00%    100.00% # Request fanout histogram
system.tol2bus.snoop_fanout::9                      0      0.00%    100.00% # Request fanout histogram
system.tol2bus.snoop_fanout::10                     0      0.00%    100.00% # Request fanout histogram
system.tol2bus.snoop_fanout::11                     0      0.00%    100.00% # Request fanout histogram
system.tol2bus.snoop_fanout::12                     0      0.00%    100.00% # Request fanout histogram
system.tol2bus.snoop_fanout::13                     0      0.00%    100.00% # Request fanout histogram
system.tol2bus.snoop_fanout::14                     0      0.00%    100.00% # Request fanout histogram
system.tol2bus.snoop_fanout::15                     0      0.00%    100.00% # Request fanout histogram
system.tol2bus.snoop_fanout::16                     0      0.00%    100.00% # Request fanout histogram
system.tol2bus.snoop_fanout::17                     0      0.00%    100.00% # Request fanout histogram
system.tol2bus.snoop_fanout::18                     0      0.00%    100.00% # Request fanout histogram
system.tol2bus.snoop_fanout::19                     0      0.00%    100.00% # Request fanout histogram
system.tol2bus.snoop_fanout::20                     0      0.00%    100.00% # Request fanout histogram
system.tol2bus.snoop_fanout::21                     0      0.00%    100.00% # Request fanout histogram
system.tol2bus.snoop_fanout::22                     0      0.00%    100.00% # Request fanout histogram
system.tol2bus.snoop_fanout::23                     0      0.00%    100.00% # Request fanout histogram
system.tol2bus.snoop_fanout::24                     0      0.00%    100.00% # Request fanout histogram
system.tol2bus.snoop_fanout::overflows              0      0.00%    100.00% # Request fanout histogram
system.tol2bus.snoop_fanout::min_value              0                       # Request fanout histogram
system.tol2bus.snoop_fanout::max_value              1                       # Request fanout histogram
system.tol2bus.snoop_fanout::total             762932                       # Request fanout histogram
system.tol2bus.reqLayer0.occupancy          658529000                       # Layer occupancy (ticks)
system.tol2bus.reqLayer0.utilization              4.3                       # Layer utilization (%)
system.tol2bus.respLayer0.occupancy             24000                       # Layer occupancy (ticks)
system.tol2bus.respLayer0.utilization             0.0                       # Layer utilization (%)
system.tol2bus.respLayer1.occupancy         970716000                       # Layer occupancy (ticks)
system.tol2bus.respLayer1.utilization             6.4                       # Layer utilization (%)

---------- End Simulation Statistics   ----------
