
---------- Begin Simulation Statistics ----------
sim_seconds                                  0.015267                       # Number of seconds simulated
sim_ticks                                 15267344125                       # Number of ticks simulated
final_tick                               3725231966500                       # Number of ticks from beginning of simulation (restored from checkpoints and never reset)
sim_freq                                 1000000000000                       # Frequency of simulated ticks
host_inst_rate                               67036136                       # Simulator instruction rate (inst/s)
host_op_rate                                124779155                       # Simulator op (including micro ops) rate (op/s)
host_tick_rate                              172806897                       # Simulator tick rate (ticks/s)
host_mem_usage                                3428876                       # Number of bytes of host memory used
host_seconds                                    88.35                       # Real time elapsed on the host
sim_insts                                  5922585039                       # Number of instructions simulated
sim_ops                                   11024132376                       # Number of ops (including micro ops) simulated
system.voltage_domain.voltage                       1                       # Voltage in Volts
system.clk_domain.clock                          1000                       # Clock period in ticks
system.mem_ctrls.pwrStateResidencyTicks::UNDEFINED  15267344125                       # Cumulative time (in ticks) in various power states
system.mem_ctrls.bytes_read::cpu0.inst            128                       # Number of bytes read from this memory
system.mem_ctrls.bytes_read::cpu0.data        4764736                       # Number of bytes read from this memory
system.mem_ctrls.bytes_read::total            4764864                       # Number of bytes read from this memory
system.mem_ctrls.bytes_inst_read::cpu0.inst          128                       # Number of instructions bytes read from this memory
system.mem_ctrls.bytes_inst_read::total           128                       # Number of instructions bytes read from this memory
system.mem_ctrls.bytes_written::writebacks       420032                       # Number of bytes written to this memory
system.mem_ctrls.bytes_written::total          420032                       # Number of bytes written to this memory
system.mem_ctrls.num_reads::cpu0.inst               2                       # Number of read requests responded to by this memory
system.mem_ctrls.num_reads::cpu0.data           74449                       # Number of read requests responded to by this memory
system.mem_ctrls.num_reads::total               74451                       # Number of read requests responded to by this memory
system.mem_ctrls.num_writes::writebacks          6563                       # Number of write requests responded to by this memory
system.mem_ctrls.num_writes::total               6563                       # Number of write requests responded to by this memory
system.mem_ctrls.bw_read::cpu0.inst              8384                       # Total read bandwidth from this memory (bytes/s)
system.mem_ctrls.bw_read::cpu0.data         312086763                       # Total read bandwidth from this memory (bytes/s)
system.mem_ctrls.bw_read::total             312095146                       # Total read bandwidth from this memory (bytes/s)
system.mem_ctrls.bw_inst_read::cpu0.inst         8384                       # Instruction read bandwidth from this memory (bytes/s)
system.mem_ctrls.bw_inst_read::total             8384                       # Instruction read bandwidth from this memory (bytes/s)
system.mem_ctrls.bw_write::writebacks        27511792                       # Write bandwidth from this memory (bytes/s)
system.mem_ctrls.bw_write::total             27511792                       # Write bandwidth from this memory (bytes/s)
system.mem_ctrls.bw_total::writebacks        27511792                       # Total bandwidth to/from this memory (bytes/s)
system.mem_ctrls.bw_total::cpu0.inst             8384                       # Total bandwidth to/from this memory (bytes/s)
system.mem_ctrls.bw_total::cpu0.data        312086763                       # Total bandwidth to/from this memory (bytes/s)
system.mem_ctrls.bw_total::total            339606939                       # Total bandwidth to/from this memory (bytes/s)
system.mem_ctrls.readReqs                       74451                       # Number of read requests accepted
system.mem_ctrls.writeReqs                       6563                       # Number of write requests accepted
system.mem_ctrls.readBursts                     74451                       # Number of DRAM read bursts, including those serviced by the write queue
system.mem_ctrls.writeBursts                     6563                       # Number of DRAM write bursts, including those merged in the write queue
system.mem_ctrls.bytesReadDRAM                4748928                       # Total number of bytes read from DRAM
system.mem_ctrls.bytesReadWrQ                   15936                       # Total number of bytes read from write queue
system.mem_ctrls.bytesWritten                  419968                       # Total number of bytes written to DRAM
system.mem_ctrls.bytesReadSys                 4764864                       # Total read bytes from the system interface side
system.mem_ctrls.bytesWrittenSys               420032                       # Total written bytes from the system interface side
system.mem_ctrls.servicedByWrQ                    249                       # Number of DRAM read bursts serviced by the write queue
system.mem_ctrls.mergedWrBursts                     0                       # Number of DRAM write bursts merged with an existing one
system.mem_ctrls.neitherReadNorWriteReqs            0                       # Number of requests that are neither read nor write
system.mem_ctrls.perBankRdBursts::0              4177                       # Per bank write bursts
system.mem_ctrls.perBankRdBursts::1              4157                       # Per bank write bursts
system.mem_ctrls.perBankRdBursts::2              4415                       # Per bank write bursts
system.mem_ctrls.perBankRdBursts::3              5254                       # Per bank write bursts
system.mem_ctrls.perBankRdBursts::4              5966                       # Per bank write bursts
system.mem_ctrls.perBankRdBursts::5              5349                       # Per bank write bursts
system.mem_ctrls.perBankRdBursts::6              5364                       # Per bank write bursts
system.mem_ctrls.perBankRdBursts::7              4596                       # Per bank write bursts
system.mem_ctrls.perBankRdBursts::8              4808                       # Per bank write bursts
system.mem_ctrls.perBankRdBursts::9              4439                       # Per bank write bursts
system.mem_ctrls.perBankRdBursts::10             4226                       # Per bank write bursts
system.mem_ctrls.perBankRdBursts::11             4311                       # Per bank write bursts
system.mem_ctrls.perBankRdBursts::12             4239                       # Per bank write bursts
system.mem_ctrls.perBankRdBursts::13             4531                       # Per bank write bursts
system.mem_ctrls.perBankRdBursts::14             4225                       # Per bank write bursts
system.mem_ctrls.perBankRdBursts::15             4145                       # Per bank write bursts
system.mem_ctrls.perBankWrBursts::0               545                       # Per bank write bursts
system.mem_ctrls.perBankWrBursts::1               600                       # Per bank write bursts
system.mem_ctrls.perBankWrBursts::2               573                       # Per bank write bursts
system.mem_ctrls.perBankWrBursts::3               436                       # Per bank write bursts
system.mem_ctrls.perBankWrBursts::4               394                       # Per bank write bursts
system.mem_ctrls.perBankWrBursts::5               211                       # Per bank write bursts
system.mem_ctrls.perBankWrBursts::6               159                       # Per bank write bursts
system.mem_ctrls.perBankWrBursts::7               444                       # Per bank write bursts
system.mem_ctrls.perBankWrBursts::8               510                       # Per bank write bursts
system.mem_ctrls.perBankWrBursts::9               423                       # Per bank write bursts
system.mem_ctrls.perBankWrBursts::10              405                       # Per bank write bursts
system.mem_ctrls.perBankWrBursts::11              279                       # Per bank write bursts
system.mem_ctrls.perBankWrBursts::12              267                       # Per bank write bursts
system.mem_ctrls.perBankWrBursts::13              444                       # Per bank write bursts
system.mem_ctrls.perBankWrBursts::14              418                       # Per bank write bursts
system.mem_ctrls.perBankWrBursts::15              454                       # Per bank write bursts
system.mem_ctrls.numRdRetry                         0                       # Number of times read queue was full causing retry
system.mem_ctrls.numWrRetry                         0                       # Number of times write queue was full causing retry
system.mem_ctrls.totGap                   15266682500                       # Total gap between requests
system.mem_ctrls.readPktSize::0                     0                       # Read request sizes (log2)
system.mem_ctrls.readPktSize::1                     0                       # Read request sizes (log2)
system.mem_ctrls.readPktSize::2                     0                       # Read request sizes (log2)
system.mem_ctrls.readPktSize::3                     0                       # Read request sizes (log2)
system.mem_ctrls.readPktSize::4                     0                       # Read request sizes (log2)
system.mem_ctrls.readPktSize::5                     0                       # Read request sizes (log2)
system.mem_ctrls.readPktSize::6                 74451                       # Read request sizes (log2)
system.mem_ctrls.writePktSize::0                    0                       # Write request sizes (log2)
system.mem_ctrls.writePktSize::1                    0                       # Write request sizes (log2)
system.mem_ctrls.writePktSize::2                    0                       # Write request sizes (log2)
system.mem_ctrls.writePktSize::3                    0                       # Write request sizes (log2)
system.mem_ctrls.writePktSize::4                    0                       # Write request sizes (log2)
system.mem_ctrls.writePktSize::5                    0                       # Write request sizes (log2)
system.mem_ctrls.writePktSize::6                 6563                       # Write request sizes (log2)
system.mem_ctrls.rdQLenPdf::0                   61289                       # What read queue length does an incoming req see
system.mem_ctrls.rdQLenPdf::1                   11859                       # What read queue length does an incoming req see
system.mem_ctrls.rdQLenPdf::2                    1002                       # What read queue length does an incoming req see
system.mem_ctrls.rdQLenPdf::3                      52                       # What read queue length does an incoming req see
system.mem_ctrls.rdQLenPdf::4                       0                       # What read queue length does an incoming req see
system.mem_ctrls.rdQLenPdf::5                       0                       # What read queue length does an incoming req see
system.mem_ctrls.rdQLenPdf::6                       0                       # What read queue length does an incoming req see
system.mem_ctrls.rdQLenPdf::7                       0                       # What read queue length does an incoming req see
system.mem_ctrls.rdQLenPdf::8                       0                       # What read queue length does an incoming req see
system.mem_ctrls.rdQLenPdf::9                       0                       # What read queue length does an incoming req see
system.mem_ctrls.rdQLenPdf::10                      0                       # What read queue length does an incoming req see
system.mem_ctrls.rdQLenPdf::11                      0                       # What read queue length does an incoming req see
system.mem_ctrls.rdQLenPdf::12                      0                       # What read queue length does an incoming req see
system.mem_ctrls.rdQLenPdf::13                      0                       # What read queue length does an incoming req see
system.mem_ctrls.rdQLenPdf::14                      0                       # What read queue length does an incoming req see
system.mem_ctrls.rdQLenPdf::15                      0                       # What read queue length does an incoming req see
system.mem_ctrls.rdQLenPdf::16                      0                       # What read queue length does an incoming req see
system.mem_ctrls.rdQLenPdf::17                      0                       # What read queue length does an incoming req see
system.mem_ctrls.rdQLenPdf::18                      0                       # What read queue length does an incoming req see
system.mem_ctrls.rdQLenPdf::19                      0                       # What read queue length does an incoming req see
system.mem_ctrls.rdQLenPdf::20                      0                       # What read queue length does an incoming req see
system.mem_ctrls.rdQLenPdf::21                      0                       # What read queue length does an incoming req see
system.mem_ctrls.rdQLenPdf::22                      0                       # What read queue length does an incoming req see
system.mem_ctrls.rdQLenPdf::23                      0                       # What read queue length does an incoming req see
system.mem_ctrls.rdQLenPdf::24                      0                       # What read queue length does an incoming req see
system.mem_ctrls.rdQLenPdf::25                      0                       # What read queue length does an incoming req see
system.mem_ctrls.rdQLenPdf::26                      0                       # What read queue length does an incoming req see
system.mem_ctrls.rdQLenPdf::27                      0                       # What read queue length does an incoming req see
system.mem_ctrls.rdQLenPdf::28                      0                       # What read queue length does an incoming req see
system.mem_ctrls.rdQLenPdf::29                      0                       # What read queue length does an incoming req see
system.mem_ctrls.rdQLenPdf::30                      0                       # What read queue length does an incoming req see
system.mem_ctrls.rdQLenPdf::31                      0                       # What read queue length does an incoming req see
system.mem_ctrls.wrQLenPdf::0                       0                       # What write queue length does an incoming req see
system.mem_ctrls.wrQLenPdf::1                       0                       # What write queue length does an incoming req see
system.mem_ctrls.wrQLenPdf::2                       0                       # What write queue length does an incoming req see
system.mem_ctrls.wrQLenPdf::3                       0                       # What write queue length does an incoming req see
system.mem_ctrls.wrQLenPdf::4                       0                       # What write queue length does an incoming req see
system.mem_ctrls.wrQLenPdf::5                       0                       # What write queue length does an incoming req see
system.mem_ctrls.wrQLenPdf::6                       0                       # What write queue length does an incoming req see
system.mem_ctrls.wrQLenPdf::7                       0                       # What write queue length does an incoming req see
system.mem_ctrls.wrQLenPdf::8                       0                       # What write queue length does an incoming req see
system.mem_ctrls.wrQLenPdf::9                       0                       # What write queue length does an incoming req see
system.mem_ctrls.wrQLenPdf::10                      0                       # What write queue length does an incoming req see
system.mem_ctrls.wrQLenPdf::11                      0                       # What write queue length does an incoming req see
system.mem_ctrls.wrQLenPdf::12                      0                       # What write queue length does an incoming req see
system.mem_ctrls.wrQLenPdf::13                      0                       # What write queue length does an incoming req see
system.mem_ctrls.wrQLenPdf::14                      0                       # What write queue length does an incoming req see
system.mem_ctrls.wrQLenPdf::15                     94                       # What write queue length does an incoming req see
system.mem_ctrls.wrQLenPdf::16                    104                       # What write queue length does an incoming req see
system.mem_ctrls.wrQLenPdf::17                    375                       # What write queue length does an incoming req see
system.mem_ctrls.wrQLenPdf::18                    397                       # What write queue length does an incoming req see
system.mem_ctrls.wrQLenPdf::19                    400                       # What write queue length does an incoming req see
system.mem_ctrls.wrQLenPdf::20                    397                       # What write queue length does an incoming req see
system.mem_ctrls.wrQLenPdf::21                    397                       # What write queue length does an incoming req see
system.mem_ctrls.wrQLenPdf::22                    397                       # What write queue length does an incoming req see
system.mem_ctrls.wrQLenPdf::23                    400                       # What write queue length does an incoming req see
system.mem_ctrls.wrQLenPdf::24                    398                       # What write queue length does an incoming req see
system.mem_ctrls.wrQLenPdf::25                    398                       # What write queue length does an incoming req see
system.mem_ctrls.wrQLenPdf::26                    399                       # What write queue length does an incoming req see
system.mem_ctrls.wrQLenPdf::27                    401                       # What write queue length does an incoming req see
system.mem_ctrls.wrQLenPdf::28                    401                       # What write queue length does an incoming req see
system.mem_ctrls.wrQLenPdf::29                    401                       # What write queue length does an incoming req see
system.mem_ctrls.wrQLenPdf::30                    404                       # What write queue length does an incoming req see
system.mem_ctrls.wrQLenPdf::31                    400                       # What write queue length does an incoming req see
system.mem_ctrls.wrQLenPdf::32                    400                       # What write queue length does an incoming req see
system.mem_ctrls.wrQLenPdf::33                      0                       # What write queue length does an incoming req see
system.mem_ctrls.wrQLenPdf::34                      0                       # What write queue length does an incoming req see
system.mem_ctrls.wrQLenPdf::35                      0                       # What write queue length does an incoming req see
system.mem_ctrls.wrQLenPdf::36                      0                       # What write queue length does an incoming req see
system.mem_ctrls.wrQLenPdf::37                      0                       # What write queue length does an incoming req see
system.mem_ctrls.wrQLenPdf::38                      0                       # What write queue length does an incoming req see
system.mem_ctrls.wrQLenPdf::39                      0                       # What write queue length does an incoming req see
system.mem_ctrls.wrQLenPdf::40                      0                       # What write queue length does an incoming req see
system.mem_ctrls.wrQLenPdf::41                      0                       # What write queue length does an incoming req see
system.mem_ctrls.wrQLenPdf::42                      0                       # What write queue length does an incoming req see
system.mem_ctrls.wrQLenPdf::43                      0                       # What write queue length does an incoming req see
system.mem_ctrls.wrQLenPdf::44                      0                       # What write queue length does an incoming req see
system.mem_ctrls.wrQLenPdf::45                      0                       # What write queue length does an incoming req see
system.mem_ctrls.wrQLenPdf::46                      0                       # What write queue length does an incoming req see
system.mem_ctrls.wrQLenPdf::47                      0                       # What write queue length does an incoming req see
system.mem_ctrls.wrQLenPdf::48                      0                       # What write queue length does an incoming req see
system.mem_ctrls.wrQLenPdf::49                      0                       # What write queue length does an incoming req see
system.mem_ctrls.wrQLenPdf::50                      0                       # What write queue length does an incoming req see
system.mem_ctrls.wrQLenPdf::51                      0                       # What write queue length does an incoming req see
system.mem_ctrls.wrQLenPdf::52                      0                       # What write queue length does an incoming req see
system.mem_ctrls.wrQLenPdf::53                      0                       # What write queue length does an incoming req see
system.mem_ctrls.wrQLenPdf::54                      0                       # What write queue length does an incoming req see
system.mem_ctrls.wrQLenPdf::55                      0                       # What write queue length does an incoming req see
system.mem_ctrls.wrQLenPdf::56                      0                       # What write queue length does an incoming req see
system.mem_ctrls.wrQLenPdf::57                      0                       # What write queue length does an incoming req see
system.mem_ctrls.wrQLenPdf::58                      0                       # What write queue length does an incoming req see
system.mem_ctrls.wrQLenPdf::59                      0                       # What write queue length does an incoming req see
system.mem_ctrls.wrQLenPdf::60                      0                       # What write queue length does an incoming req see
system.mem_ctrls.wrQLenPdf::61                      0                       # What write queue length does an incoming req see
system.mem_ctrls.wrQLenPdf::62                      0                       # What write queue length does an incoming req see
system.mem_ctrls.wrQLenPdf::63                      0                       # What write queue length does an incoming req see
system.mem_ctrls.bytesPerActivate::samples        59441                       # Bytes accessed per row activation
system.mem_ctrls.bytesPerActivate::mean     86.969196                       # Bytes accessed per row activation
system.mem_ctrls.bytesPerActivate::gmean    79.633714                       # Bytes accessed per row activation
system.mem_ctrls.bytesPerActivate::stdev    44.383622                       # Bytes accessed per row activation
system.mem_ctrls.bytesPerActivate::64-127        43677     73.48%     73.48% # Bytes accessed per row activation
system.mem_ctrls.bytesPerActivate::128-191        11613     19.54%     93.02% # Bytes accessed per row activation
system.mem_ctrls.bytesPerActivate::192-255         3075      5.17%     98.19% # Bytes accessed per row activation
system.mem_ctrls.bytesPerActivate::256-319          824      1.39%     99.58% # Bytes accessed per row activation
system.mem_ctrls.bytesPerActivate::320-383          190      0.32%     99.90% # Bytes accessed per row activation
system.mem_ctrls.bytesPerActivate::384-447           41      0.07%     99.96% # Bytes accessed per row activation
system.mem_ctrls.bytesPerActivate::448-511           15      0.03%     99.99% # Bytes accessed per row activation
system.mem_ctrls.bytesPerActivate::512-575            5      0.01%    100.00% # Bytes accessed per row activation
system.mem_ctrls.bytesPerActivate::576-639            1      0.00%    100.00% # Bytes accessed per row activation
system.mem_ctrls.bytesPerActivate::total        59441                       # Bytes accessed per row activation
system.mem_ctrls.rdPerTurnAround::samples          397                       # Reads before turning the bus around for writes
system.mem_ctrls.rdPerTurnAround::mean     187.080605                       # Reads before turning the bus around for writes
system.mem_ctrls.rdPerTurnAround::gmean    177.752031                       # Reads before turning the bus around for writes
system.mem_ctrls.rdPerTurnAround::stdev     57.826050                       # Reads before turning the bus around for writes
system.mem_ctrls.rdPerTurnAround::48-63             2      0.50%      0.50% # Reads before turning the bus around for writes
system.mem_ctrls.rdPerTurnAround::64-79             6      1.51%      2.02% # Reads before turning the bus around for writes
system.mem_ctrls.rdPerTurnAround::80-95             9      2.27%      4.28% # Reads before turning the bus around for writes
system.mem_ctrls.rdPerTurnAround::96-111           25      6.30%     10.58% # Reads before turning the bus around for writes
system.mem_ctrls.rdPerTurnAround::112-127           18      4.53%     15.11% # Reads before turning the bus around for writes
system.mem_ctrls.rdPerTurnAround::128-143           24      6.05%     21.16% # Reads before turning the bus around for writes
system.mem_ctrls.rdPerTurnAround::144-159           40     10.08%     31.23% # Reads before turning the bus around for writes
system.mem_ctrls.rdPerTurnAround::160-175           50     12.59%     43.83% # Reads before turning the bus around for writes
system.mem_ctrls.rdPerTurnAround::176-191           57     14.36%     58.19% # Reads before turning the bus around for writes
system.mem_ctrls.rdPerTurnAround::192-207           38      9.57%     67.76% # Reads before turning the bus around for writes
system.mem_ctrls.rdPerTurnAround::208-223           28      7.05%     74.81% # Reads before turning the bus around for writes
system.mem_ctrls.rdPerTurnAround::224-239           27      6.80%     81.61% # Reads before turning the bus around for writes
system.mem_ctrls.rdPerTurnAround::240-255           27      6.80%     88.41% # Reads before turning the bus around for writes
system.mem_ctrls.rdPerTurnAround::256-271           12      3.02%     91.44% # Reads before turning the bus around for writes
system.mem_ctrls.rdPerTurnAround::272-287           12      3.02%     94.46% # Reads before turning the bus around for writes
system.mem_ctrls.rdPerTurnAround::288-303           11      2.77%     97.23% # Reads before turning the bus around for writes
system.mem_ctrls.rdPerTurnAround::304-319            5      1.26%     98.49% # Reads before turning the bus around for writes
system.mem_ctrls.rdPerTurnAround::320-335            1      0.25%     98.74% # Reads before turning the bus around for writes
system.mem_ctrls.rdPerTurnAround::336-351            2      0.50%     99.24% # Reads before turning the bus around for writes
system.mem_ctrls.rdPerTurnAround::352-367            1      0.25%     99.50% # Reads before turning the bus around for writes
system.mem_ctrls.rdPerTurnAround::368-383            1      0.25%     99.75% # Reads before turning the bus around for writes
system.mem_ctrls.rdPerTurnAround::400-415            1      0.25%    100.00% # Reads before turning the bus around for writes
system.mem_ctrls.rdPerTurnAround::total           397                       # Reads before turning the bus around for writes
system.mem_ctrls.wrPerTurnAround::samples          397                       # Writes before turning the bus around for reads
system.mem_ctrls.wrPerTurnAround::mean      16.528967                       # Writes before turning the bus around for reads
system.mem_ctrls.wrPerTurnAround::gmean     16.504871                       # Writes before turning the bus around for reads
system.mem_ctrls.wrPerTurnAround::stdev      0.914138                       # Writes before turning the bus around for reads
system.mem_ctrls.wrPerTurnAround::16              292     73.55%     73.55% # Writes before turning the bus around for reads
system.mem_ctrls.wrPerTurnAround::17               10      2.52%     76.07% # Writes before turning the bus around for reads
system.mem_ctrls.wrPerTurnAround::18               86     21.66%     97.73% # Writes before turning the bus around for reads
system.mem_ctrls.wrPerTurnAround::19                8      2.02%     99.75% # Writes before turning the bus around for reads
system.mem_ctrls.wrPerTurnAround::20                1      0.25%    100.00% # Writes before turning the bus around for reads
system.mem_ctrls.wrPerTurnAround::total           397                       # Writes before turning the bus around for reads
system.mem_ctrls.totQLat                   2229328250                       # Total ticks spent queuing
system.mem_ctrls.totMemAccLat              3620615750                       # Total ticks spent from burst creation until serviced by the DRAM
system.mem_ctrls.totBusLat                  371010000                       # Total ticks spent in databus transfers
system.mem_ctrls.avgQLat                     30044.05                       # Average queueing delay per DRAM burst
system.mem_ctrls.avgBusLat                    5000.00                       # Average bus latency per DRAM burst
system.mem_ctrls.avgMemAccLat                48794.05                       # Average memory access latency per DRAM burst
system.mem_ctrls.avgRdBW                       311.05                       # Average DRAM read bandwidth in MiByte/s
system.mem_ctrls.avgWrBW                        27.51                       # Average achieved write bandwidth in MiByte/s
system.mem_ctrls.avgRdBWSys                    312.10                       # Average system read bandwidth in MiByte/s
system.mem_ctrls.avgWrBWSys                     27.51                       # Average system write bandwidth in MiByte/s
system.mem_ctrls.peakBW                      12800.00                       # Theoretical peak bandwidth in MiByte/s
system.mem_ctrls.busUtil                         2.64                       # Data bus utilization in percentage
system.mem_ctrls.busUtilRead                     2.43                       # Data bus utilization in percentage for reads
system.mem_ctrls.busUtilWrite                    0.21                       # Data bus utilization in percentage for writes
system.mem_ctrls.avgRdQLen                       1.13                       # Average read queue length when enqueuing
system.mem_ctrls.avgWrQLen                      25.07                       # Average write queue length when enqueuing
system.mem_ctrls.readRowHits                    19845                       # Number of row buffer hits during reads
system.mem_ctrls.writeRowHits                    1485                       # Number of row buffer hits during writes
system.mem_ctrls.readRowHitRate                 26.74                       # Row buffer hit rate for reads
system.mem_ctrls.writeRowHitRate                22.63                       # Row buffer hit rate for writes
system.mem_ctrls.avgGap                     188444.99                       # Average gap between requests
system.mem_ctrls.pageHitRate                    26.41                       # Row buffer hit rate, read and write combined
system.mem_ctrls_0.actEnergy                223046460                       # Energy for activate commands per rank (pJ)
system.mem_ctrls_0.preEnergy                118563390                       # Energy for precharge commands per rank (pJ)
system.mem_ctrls_0.readEnergy               280444920                       # Energy for read commands per rank (pJ)
system.mem_ctrls_0.writeEnergy               17549640                       # Energy for write commands per rank (pJ)
system.mem_ctrls_0.refreshEnergy         1227436080.000000                       # Energy for refresh commands per rank (pJ)
system.mem_ctrls_0.actBackEnergy            986391270                       # Energy for active background per rank (pJ)
system.mem_ctrls_0.preBackEnergy             33539040                       # Energy for precharge background per rank (pJ)
system.mem_ctrls_0.actPowerDownEnergy      4811974200                       # Energy for active power-down per rank (pJ)
system.mem_ctrls_0.prePowerDownEnergy       806317440                       # Energy for precharge power-down per rank (pJ)
system.mem_ctrls_0.selfRefreshEnergy        136630560                       # Energy for self refresh per rank (pJ)
system.mem_ctrls_0.totalEnergy             8642215800                       # Total energy per rank (pJ)
system.mem_ctrls_0.averagePower            566.058886                       # Core power per rank (mW)
system.mem_ctrls_0.totalIdleTime          13015368375                       # Total Idle time Per DRAM Rank
system.mem_ctrls_0.memoryStateTime::IDLE     33522500                       # Time in different power states
system.mem_ctrls_0.memoryStateTime::REF     519784000                       # Time in different power states
system.mem_ctrls_0.memoryStateTime::SREF    363793000                       # Time in different power states
system.mem_ctrls_0.memoryStateTime::PRE_PDN   2099833750                       # Time in different power states
system.mem_ctrls_0.memoryStateTime::ACT    1697966000                       # Time in different power states
system.mem_ctrls_0.memoryStateTime::ACT_PDN  10552444875                       # Time in different power states
system.mem_ctrls_1.actEnergy                201312300                       # Energy for activate commands per rank (pJ)
system.mem_ctrls_1.preEnergy                107015205                       # Energy for precharge commands per rank (pJ)
system.mem_ctrls_1.readEnergy               249357360                       # Energy for read commands per rank (pJ)
system.mem_ctrls_1.writeEnergy               16704000                       # Energy for write commands per rank (pJ)
system.mem_ctrls_1.refreshEnergy         1219445760.000000                       # Energy for refresh commands per rank (pJ)
system.mem_ctrls_1.actBackEnergy            902097390                       # Energy for active background per rank (pJ)
system.mem_ctrls_1.preBackEnergy             35225760                       # Energy for precharge background per rank (pJ)
system.mem_ctrls_1.actPowerDownEnergy      4725538260                       # Energy for active power-down per rank (pJ)
system.mem_ctrls_1.prePowerDownEnergy       857240640                       # Energy for precharge power-down per rank (pJ)
system.mem_ctrls_1.selfRefreshEnergy        204099720                       # Energy for self refresh per rank (pJ)
system.mem_ctrls_1.totalEnergy             8518156965                       # Total energy per rank (pJ)
system.mem_ctrls_1.averagePower            557.933122                       # Core power per rank (mW)
system.mem_ctrls_1.totalIdleTime          13195819375                       # Total Idle time Per DRAM Rank
system.mem_ctrls_1.memoryStateTime::IDLE     38244000                       # Time in different power states
system.mem_ctrls_1.memoryStateTime::REF     516530000                       # Time in different power states
system.mem_ctrls_1.memoryStateTime::SREF    601624500                       # Time in different power states
system.mem_ctrls_1.memoryStateTime::PRE_PDN   2232321250                       # Time in different power states
system.mem_ctrls_1.memoryStateTime::ACT    1515597750                       # Time in different power states
system.mem_ctrls_1.memoryStateTime::ACT_PDN  10363026625                       # Time in different power states
system.pwrStateResidencyTicks::UNDEFINED  15267344125                       # Cumulative time (in ticks) in various power states
system.cpu0.branchPred.lookups                4704106                       # Number of BP lookups
system.cpu0.branchPred.condPredicted          4704106                       # Number of conditional branches predicted
system.cpu0.branchPred.condIncorrect           183815                       # Number of conditional branches incorrect
system.cpu0.branchPred.BTBLookups             3615820                       # Number of BTB lookups
system.cpu0.branchPred.BTBHits                      0                       # Number of BTB hits
system.cpu0.branchPred.BTBCorrect                   0                       # Number of correct BTB predictions (this stat may not work properly.
system.cpu0.branchPred.BTBHitPct             0.000000                       # BTB Hit Percentage
system.cpu0.branchPred.usedRAS                 105731                       # Number of times the RAS was used to get a target.
system.cpu0.branchPred.RASInCorrect             14564                       # Number of incorrect RAS predictions.
system.cpu0.branchPred.indirectLookups        3615820                       # Number of indirect predictor lookups.
system.cpu0.branchPred.indirectHits           2052467                       # Number of indirect target hits.
system.cpu0.branchPred.indirectMisses         1563353                       # Number of indirect misses.
system.cpu0.branchPredindirectMispredicted        57660                       # Number of mispredicted indirect branches.
system.cpu_voltage_domain.voltage                   1                       # Voltage in Volts
system.cpu_clk_domain.clock                       500                       # Clock period in ticks
system.cpu0.dtb.walker.pwrStateResidencyTicks::UNDEFINED  15267344125                       # Cumulative time (in ticks) in various power states
system.cpu0.dtb.rdAccesses                    2297052                       # TLB accesses on read requests
system.cpu0.dtb.wrAccesses                     133871                       # TLB accesses on write requests
system.cpu0.dtb.rdMisses                       513999                       # TLB misses on read requests
system.cpu0.dtb.wrMisses                         2548                       # TLB misses on write requests
system.cpu0.apic_clk_domain.clock                8000                       # Clock period in ticks
system.cpu0.interrupts.pwrStateResidencyTicks::UNDEFINED  15267344125                       # Cumulative time (in ticks) in various power states
system.cpu0.itb.walker.pwrStateResidencyTicks::UNDEFINED  15267344125                       # Cumulative time (in ticks) in various power states
system.cpu0.itb.rdAccesses                          0                       # TLB accesses on read requests
system.cpu0.itb.wrAccesses                    4056228                       # TLB accesses on write requests
system.cpu0.itb.rdMisses                            0                       # TLB misses on read requests
system.cpu0.itb.wrMisses                         9313                       # TLB misses on write requests
system.cpu0.workload.numSyscalls                    1                       # Number of system calls
system.cpu0.pwrStateResidencyTicks::ON    15267344125                       # Cumulative time (in ticks) in various power states
system.cpu0.numCycles                        30534689                       # number of cpu cycles simulated
system.cpu0.numWorkItemsStarted                     0                       # number of work items this cpu started
system.cpu0.numWorkItemsCompleted                   0                       # number of work items this cpu completed
system.cpu0.fetch.icacheStallCycles           4136082                       # Number of cycles fetch is stalled on an Icache miss
system.cpu0.fetch.Insts                      13378628                       # Number of instructions fetch has processed
system.cpu0.fetch.Branches                    4704106                       # Number of branches that fetch encountered
system.cpu0.fetch.predictedBranches           2158198                       # Number of branches that fetch has predicted taken
system.cpu0.fetch.Cycles                     26123659                       # Number of cycles fetch has run and was not squashing or blocked
system.cpu0.fetch.SquashCycles                 373448                       # Number of cycles fetch has spent squashing
system.cpu0.fetch.TlbCycles                       788                       # Number of cycles fetch has spent waiting for tlb
system.cpu0.fetch.MiscStallCycles                2137                       # Number of cycles fetch has spent waiting on interrupts, or bad addresses, or out of MSHRs
system.cpu0.fetch.PendingTrapStallCycles        73327                       # Number of stall cycles due to pending traps
system.cpu0.fetch.CacheLines                  4046915                       # Number of cache lines fetched
system.cpu0.fetch.IcacheSquashes                29759                       # Number of outstanding Icache misses that were squashed
system.cpu0.fetch.ItlbSquashes                      7                       # Number of outstanding ITLB misses that were squashed
system.cpu0.fetch.rateDist::samples          30522717                       # Number of instructions fetched each cycle (Total)
system.cpu0.fetch.rateDist::mean             0.879627                       # Number of instructions fetched each cycle (Total)
system.cpu0.fetch.rateDist::stdev            2.249691                       # Number of instructions fetched each cycle (Total)
system.cpu0.fetch.rateDist::underflows              0      0.00%      0.00% # Number of instructions fetched each cycle (Total)
system.cpu0.fetch.rateDist::0                25253124     82.74%     82.74% # Number of instructions fetched each cycle (Total)
system.cpu0.fetch.rateDist::1                   62849      0.21%     82.94% # Number of instructions fetched each cycle (Total)
system.cpu0.fetch.rateDist::2                 2034737      6.67%     89.61% # Number of instructions fetched each cycle (Total)
system.cpu0.fetch.rateDist::3                   60838      0.20%     89.81% # Number of instructions fetched each cycle (Total)
system.cpu0.fetch.rateDist::4                  357188      1.17%     90.98% # Number of instructions fetched each cycle (Total)
system.cpu0.fetch.rateDist::5                  134879      0.44%     91.42% # Number of instructions fetched each cycle (Total)
system.cpu0.fetch.rateDist::6                  234745      0.77%     92.19% # Number of instructions fetched each cycle (Total)
system.cpu0.fetch.rateDist::7                   52693      0.17%     92.36% # Number of instructions fetched each cycle (Total)
system.cpu0.fetch.rateDist::8                 2331664      7.64%    100.00% # Number of instructions fetched each cycle (Total)
system.cpu0.fetch.rateDist::overflows               0      0.00%    100.00% # Number of instructions fetched each cycle (Total)
system.cpu0.fetch.rateDist::min_value               0                       # Number of instructions fetched each cycle (Total)
system.cpu0.fetch.rateDist::max_value               8                       # Number of instructions fetched each cycle (Total)
system.cpu0.fetch.rateDist::total            30522717                       # Number of instructions fetched each cycle (Total)
system.cpu0.fetch.branchRate                 0.154058                       # Number of branch fetches per cycle
system.cpu0.fetch.rate                       0.438145                       # Number of inst fetches per cycle
system.cpu0.decode.IdleCycles                 2111633                       # Number of cycles decode is idle
system.cpu0.decode.BlockedCycles             24655979                       # Number of cycles decode is blocked
system.cpu0.decode.RunCycles                  2676631                       # Number of cycles decode is running
system.cpu0.decode.UnblockCycles               891750                       # Number of cycles decode is unblocking
system.cpu0.decode.SquashCycles                186724                       # Number of cycles decode is squashing
system.cpu0.decode.DecodedInsts              22834040                       # Number of instructions handled by decode
system.cpu0.rename.SquashCycles                186724                       # Number of cycles rename is squashing
system.cpu0.rename.IdleCycles                 2430382                       # Number of cycles rename is idle
system.cpu0.rename.BlockCycles               21627393                       # Number of cycles rename is blocking
system.cpu0.rename.serializeStallCycles         41943                       # count of cycles rename stalled for serializing inst
system.cpu0.rename.RunCycles                  3068093                       # Number of cycles rename is running
system.cpu0.rename.UnblockCycles              3168182                       # Number of cycles rename is unblocking
system.cpu0.rename.RenamedInsts              21993412                       # Number of instructions processed by rename
system.cpu0.rename.ROBFullEvents                56426                       # Number of times rename has blocked due to ROB full
system.cpu0.rename.IQFullEvents               2868296                       # Number of times rename has blocked due to IQ full
system.cpu0.rename.LQFullEvents                130089                       # Number of times rename has blocked due to LQ full
system.cpu0.rename.SQFullEvents                 21623                       # Number of times rename has blocked due to SQ full
system.cpu0.rename.RenamedOperands           26233856                       # Number of destination operands rename has renamed
system.cpu0.rename.RenameLookups             61628285                       # Number of register rename lookups that rename has made
system.cpu0.rename.int_rename_lookups        28549499                       # Number of integer rename lookups
system.cpu0.rename.fp_rename_lookups           106563                       # Number of floating rename lookups
system.cpu0.rename.CommittedMaps             10204073                       # Number of HB maps that are committed
system.cpu0.rename.UndoneMaps                16029782                       # Number of HB maps that are undone due to squashing
system.cpu0.rename.serializingInsts               847                       # count of serializing insts renamed
system.cpu0.rename.tempSerializingInsts          1013                       # count of temporary serializing insts renamed
system.cpu0.rename.skidInsts                  5594630                       # count of insts added to the skid buffer
system.cpu0.memDep0.insertedLoads             4006939                       # Number of loads inserted to the mem dependence unit.
system.cpu0.memDep0.insertedStores             196936                       # Number of stores inserted to the mem dependence unit.
system.cpu0.memDep0.conflictingLoads            12296                       # Number of conflicting loads.
system.cpu0.memDep0.conflictingStores           12198                       # Number of conflicting stores.
system.cpu0.iq.iqInstsAdded                  20927550                       # Number of instructions added to the IQ (excludes non-spec)
system.cpu0.iq.iqNonSpecInstsAdded              11981                       # Number of non-speculative instructions added to the IQ
system.cpu0.iq.iqInstsIssued                 15115362                       # Number of instructions issued
system.cpu0.iq.iqSquashedInstsIssued            19743                       # Number of squashed instructions issued
system.cpu0.iq.iqSquashedInstsExamined       12430454                       # Number of squashed instructions iterated over during squash; mainly for profiling
system.cpu0.iq.iqSquashedOperandsExamined     26968326                       # Number of squashed operands that are examined and possibly removed from graph
system.cpu0.iq.iqSquashedNonSpecRemoved         11980                       # Number of squashed non-spec instructions that were removed
system.cpu0.iq.issued_per_cycle::samples     30522717                       # Number of insts issued each cycle
system.cpu0.iq.issued_per_cycle::mean        0.495217                       # Number of insts issued each cycle
system.cpu0.iq.issued_per_cycle::stdev       1.228209                       # Number of insts issued each cycle
system.cpu0.iq.issued_per_cycle::underflows            0      0.00%      0.00% # Number of insts issued each cycle
system.cpu0.iq.issued_per_cycle::0           24466861     80.16%     80.16% # Number of insts issued each cycle
system.cpu0.iq.issued_per_cycle::1            2281417      7.47%     87.63% # Number of insts issued each cycle
system.cpu0.iq.issued_per_cycle::2            1291491      4.23%     91.87% # Number of insts issued each cycle
system.cpu0.iq.issued_per_cycle::3             906787      2.97%     94.84% # Number of insts issued each cycle
system.cpu0.iq.issued_per_cycle::4             915690      3.00%     97.84% # Number of insts issued each cycle
system.cpu0.iq.issued_per_cycle::5             301348      0.99%     98.82% # Number of insts issued each cycle
system.cpu0.iq.issued_per_cycle::6             214990      0.70%     99.53% # Number of insts issued each cycle
system.cpu0.iq.issued_per_cycle::7              81902      0.27%     99.80% # Number of insts issued each cycle
system.cpu0.iq.issued_per_cycle::8              62231      0.20%    100.00% # Number of insts issued each cycle
system.cpu0.iq.issued_per_cycle::overflows            0      0.00%    100.00% # Number of insts issued each cycle
system.cpu0.iq.issued_per_cycle::min_value            0                       # Number of insts issued each cycle
system.cpu0.iq.issued_per_cycle::max_value            8                       # Number of insts issued each cycle
system.cpu0.iq.issued_per_cycle::total       30522717                       # Number of insts issued each cycle
system.cpu0.iq.fu_full::No_OpClass                  0      0.00%      0.00% # attempts to use FU when none available
system.cpu0.iq.fu_full::IntAlu                  32915     73.10%     73.10% # attempts to use FU when none available
system.cpu0.iq.fu_full::IntMult                     0      0.00%     73.10% # attempts to use FU when none available
system.cpu0.iq.fu_full::IntDiv                      0      0.00%     73.10% # attempts to use FU when none available
system.cpu0.iq.fu_full::FloatAdd                 3093      6.87%     79.97% # attempts to use FU when none available
system.cpu0.iq.fu_full::FloatCmp                    0      0.00%     79.97% # attempts to use FU when none available
system.cpu0.iq.fu_full::FloatCvt                    0      0.00%     79.97% # attempts to use FU when none available
system.cpu0.iq.fu_full::FloatMult                   0      0.00%     79.97% # attempts to use FU when none available
system.cpu0.iq.fu_full::FloatMultAcc                0      0.00%     79.97% # attempts to use FU when none available
system.cpu0.iq.fu_full::FloatDiv                    0      0.00%     79.97% # attempts to use FU when none available
system.cpu0.iq.fu_full::FloatMisc                   0      0.00%     79.97% # attempts to use FU when none available
system.cpu0.iq.fu_full::FloatSqrt                   0      0.00%     79.97% # attempts to use FU when none available
system.cpu0.iq.fu_full::SimdAdd                     0      0.00%     79.97% # attempts to use FU when none available
system.cpu0.iq.fu_full::SimdAddAcc                  0      0.00%     79.97% # attempts to use FU when none available
system.cpu0.iq.fu_full::SimdAlu                     0      0.00%     79.97% # attempts to use FU when none available
system.cpu0.iq.fu_full::SimdCmp                     0      0.00%     79.97% # attempts to use FU when none available
system.cpu0.iq.fu_full::SimdCvt                     0      0.00%     79.97% # attempts to use FU when none available
system.cpu0.iq.fu_full::SimdMisc                    0      0.00%     79.97% # attempts to use FU when none available
system.cpu0.iq.fu_full::SimdMult                    0      0.00%     79.97% # attempts to use FU when none available
system.cpu0.iq.fu_full::SimdMultAcc                 0      0.00%     79.97% # attempts to use FU when none available
system.cpu0.iq.fu_full::SimdShift                   0      0.00%     79.97% # attempts to use FU when none available
system.cpu0.iq.fu_full::SimdShiftAcc                0      0.00%     79.97% # attempts to use FU when none available
system.cpu0.iq.fu_full::SimdSqrt                    0      0.00%     79.97% # attempts to use FU when none available
system.cpu0.iq.fu_full::SimdFloatAdd                0      0.00%     79.97% # attempts to use FU when none available
system.cpu0.iq.fu_full::SimdFloatAlu                0      0.00%     79.97% # attempts to use FU when none available
system.cpu0.iq.fu_full::SimdFloatCmp                0      0.00%     79.97% # attempts to use FU when none available
system.cpu0.iq.fu_full::SimdFloatCvt                0      0.00%     79.97% # attempts to use FU when none available
system.cpu0.iq.fu_full::SimdFloatDiv                0      0.00%     79.97% # attempts to use FU when none available
system.cpu0.iq.fu_full::SimdFloatMisc               0      0.00%     79.97% # attempts to use FU when none available
system.cpu0.iq.fu_full::SimdFloatMult               0      0.00%     79.97% # attempts to use FU when none available
system.cpu0.iq.fu_full::SimdFloatMultAcc            0      0.00%     79.97% # attempts to use FU when none available
system.cpu0.iq.fu_full::SimdFloatSqrt               0      0.00%     79.97% # attempts to use FU when none available
system.cpu0.iq.fu_full::MemRead                  7755     17.22%     97.19% # attempts to use FU when none available
system.cpu0.iq.fu_full::MemWrite                  756      1.68%     98.87% # attempts to use FU when none available
system.cpu0.iq.fu_full::FloatMemRead              369      0.82%     99.69% # attempts to use FU when none available
system.cpu0.iq.fu_full::FloatMemWrite             138      0.31%    100.00% # attempts to use FU when none available
system.cpu0.iq.fu_full::IprAccess                   0      0.00%    100.00% # attempts to use FU when none available
system.cpu0.iq.fu_full::InstPrefetch                0      0.00%    100.00% # attempts to use FU when none available
system.cpu0.iq.FU_type_0::No_OpClass            42410      0.28%      0.28% # Type of FU issued
system.cpu0.iq.FU_type_0::IntAlu             12440137     82.30%     82.58% # Type of FU issued
system.cpu0.iq.FU_type_0::IntMult                2313      0.02%     82.60% # Type of FU issued
system.cpu0.iq.FU_type_0::IntDiv                27018      0.18%     82.78% # Type of FU issued
system.cpu0.iq.FU_type_0::FloatAdd              39435      0.26%     83.04% # Type of FU issued
system.cpu0.iq.FU_type_0::FloatCmp                  0      0.00%     83.04% # Type of FU issued
system.cpu0.iq.FU_type_0::FloatCvt                  0      0.00%     83.04% # Type of FU issued
system.cpu0.iq.FU_type_0::FloatMult                 0      0.00%     83.04% # Type of FU issued
system.cpu0.iq.FU_type_0::FloatMultAcc              0      0.00%     83.04% # Type of FU issued
system.cpu0.iq.FU_type_0::FloatDiv                  0      0.00%     83.04% # Type of FU issued
system.cpu0.iq.FU_type_0::FloatMisc                 0      0.00%     83.04% # Type of FU issued
system.cpu0.iq.FU_type_0::FloatSqrt                 0      0.00%     83.04% # Type of FU issued
system.cpu0.iq.FU_type_0::SimdAdd                   0      0.00%     83.04% # Type of FU issued
system.cpu0.iq.FU_type_0::SimdAddAcc                0      0.00%     83.04% # Type of FU issued
system.cpu0.iq.FU_type_0::SimdAlu                   0      0.00%     83.04% # Type of FU issued
system.cpu0.iq.FU_type_0::SimdCmp                   0      0.00%     83.04% # Type of FU issued
system.cpu0.iq.FU_type_0::SimdCvt                   0      0.00%     83.04% # Type of FU issued
system.cpu0.iq.FU_type_0::SimdMisc                  0      0.00%     83.04% # Type of FU issued
system.cpu0.iq.FU_type_0::SimdMult                  0      0.00%     83.04% # Type of FU issued
system.cpu0.iq.FU_type_0::SimdMultAcc               0      0.00%     83.04% # Type of FU issued
system.cpu0.iq.FU_type_0::SimdShift                 0      0.00%     83.04% # Type of FU issued
system.cpu0.iq.FU_type_0::SimdShiftAcc              0      0.00%     83.04% # Type of FU issued
system.cpu0.iq.FU_type_0::SimdSqrt                  0      0.00%     83.04% # Type of FU issued
system.cpu0.iq.FU_type_0::SimdFloatAdd              0      0.00%     83.04% # Type of FU issued
system.cpu0.iq.FU_type_0::SimdFloatAlu              0      0.00%     83.04% # Type of FU issued
system.cpu0.iq.FU_type_0::SimdFloatCmp              0      0.00%     83.04% # Type of FU issued
system.cpu0.iq.FU_type_0::SimdFloatCvt              0      0.00%     83.04% # Type of FU issued
system.cpu0.iq.FU_type_0::SimdFloatDiv              0      0.00%     83.04% # Type of FU issued
system.cpu0.iq.FU_type_0::SimdFloatMisc             0      0.00%     83.04% # Type of FU issued
system.cpu0.iq.FU_type_0::SimdFloatMult             0      0.00%     83.04% # Type of FU issued
system.cpu0.iq.FU_type_0::SimdFloatMultAcc            0      0.00%     83.04% # Type of FU issued
system.cpu0.iq.FU_type_0::SimdFloatSqrt             0      0.00%     83.04% # Type of FU issued
system.cpu0.iq.FU_type_0::MemRead             2412215     15.96%     99.00% # Type of FU issued
system.cpu0.iq.FU_type_0::MemWrite             143922      0.95%     99.95% # Type of FU issued
system.cpu0.iq.FU_type_0::FloatMemRead           7455      0.05%    100.00% # Type of FU issued
system.cpu0.iq.FU_type_0::FloatMemWrite           457      0.00%    100.00% # Type of FU issued
system.cpu0.iq.FU_type_0::IprAccess                 0      0.00%    100.00% # Type of FU issued
system.cpu0.iq.FU_type_0::InstPrefetch              0      0.00%    100.00% # Type of FU issued
system.cpu0.iq.FU_type_0::total              15115362                       # Type of FU issued
system.cpu0.iq.rate                          0.495023                       # Inst issue rate
system.cpu0.iq.fu_busy_cnt                      45026                       # FU busy when requested
system.cpu0.iq.fu_busy_rate                  0.002979                       # FU busy rate (busy events/executed inst)
system.cpu0.iq.int_inst_queue_reads          60719098                       # Number of integer instruction queue reads
system.cpu0.iq.int_inst_queue_writes         33278270                       # Number of integer instruction queue writes
system.cpu0.iq.int_inst_queue_wakeup_accesses     14503570                       # Number of integer instruction queue wakeup accesses
system.cpu0.iq.fp_inst_queue_reads              99111                       # Number of floating instruction queue reads
system.cpu0.iq.fp_inst_queue_writes             91730                       # Number of floating instruction queue writes
system.cpu0.iq.fp_inst_queue_wakeup_accesses        43149                       # Number of floating instruction queue wakeup accesses
system.cpu0.iq.vec_inst_queue_reads                 0                       # Number of vector instruction queue reads
system.cpu0.iq.vec_inst_queue_writes                0                       # Number of vector instruction queue writes
system.cpu0.iq.vec_inst_queue_wakeup_accesses            0                       # Number of vector instruction queue wakeup accesses
system.cpu0.iq.int_alu_accesses              15066987                       # Number of integer alu accesses
system.cpu0.iq.fp_alu_accesses                  50991                       # Number of floating point alu accesses
system.cpu0.iq.vec_alu_accesses                     0                       # Number of vector alu accesses
system.cpu0.iew.lsq.thread0.forwLoads           12623                       # Number of loads that had data forwarded from stores
system.cpu0.iew.lsq.thread0.invAddrLoads            0                       # Number of loads ignored due to an invalid address
system.cpu0.iew.lsq.thread0.squashedLoads      2393173                       # Number of loads squashed
system.cpu0.iew.lsq.thread0.ignoredResponses          423                       # Number of memory responses ignored because the instruction is squashed
system.cpu0.iew.lsq.thread0.memOrderViolation           20                       # Number of memory ordering violations
system.cpu0.iew.lsq.thread0.squashedStores       118267                       # Number of stores squashed
system.cpu0.iew.lsq.thread0.invAddrSwpfs            0                       # Number of software prefetches ignored due to an invalid address
system.cpu0.iew.lsq.thread0.blockedLoads            0                       # Number of blocked loads due to partial load-store forwarding
system.cpu0.iew.lsq.thread0.rescheduledLoads           81                       # Number of loads that were rescheduled
system.cpu0.iew.lsq.thread0.cacheBlocked         6813                       # Number of times an access to memory failed due to the cache being blocked
system.cpu0.iew.iewIdleCycles                       0                       # Number of cycles IEW is idle
system.cpu0.iew.iewSquashCycles                186724                       # Number of cycles IEW is squashing
system.cpu0.iew.iewBlockCycles               18795831                       # Number of cycles IEW is blocking
system.cpu0.iew.iewUnblockCycles               538931                       # Number of cycles IEW is unblocking
system.cpu0.iew.iewDispatchedInsts           20939531                       # Number of instructions dispatched to IQ
system.cpu0.iew.iewDispSquashedInsts             9145                       # Number of squashed instructions skipped by dispatch
system.cpu0.iew.iewDispLoadInsts              4006939                       # Number of dispatched load instructions
system.cpu0.iew.iewDispStoreInsts              196936                       # Number of dispatched store instructions
system.cpu0.iew.iewDispNonSpecInsts              4492                       # Number of dispatched non-speculative instructions
system.cpu0.iew.iewIQFullEvents                 35254                       # Number of times the IQ has become full, causing a stall
system.cpu0.iew.iewLSQFullEvents                33417                       # Number of times the LSQ has become full, causing a stall
system.cpu0.iew.memOrderViolationEvents            20                       # Number of memory order violations
system.cpu0.iew.predictedTakenIncorrect        103172                       # Number of branches that were predicted taken incorrectly
system.cpu0.iew.predictedNotTakenIncorrect       102409                       # Number of branches that were predicted not taken incorrectly
system.cpu0.iew.branchMispredicts              205581                       # Number of branch mispredicts detected at execute
system.cpu0.iew.iewExecutedInsts             14830775                       # Number of executed instructions
system.cpu0.iew.iewExecLoadInsts              2296375                       # Number of load instructions executed
system.cpu0.iew.iewExecSquashedInsts           284586                       # Number of squashed instructions skipped in execute
system.cpu0.iew.exec_swp                            0                       # number of swp insts executed
system.cpu0.iew.exec_nop                            0                       # number of nop insts executed
system.cpu0.iew.exec_refs                     2430202                       # number of memory reference insts executed
system.cpu0.iew.exec_branches                 1848727                       # Number of branches executed
system.cpu0.iew.exec_stores                    133827                       # Number of stores executed
system.cpu0.iew.exec_rate                    0.485703                       # Inst execution rate
system.cpu0.iew.wb_sent                      14590150                       # cumulative count of insts sent to commit
system.cpu0.iew.wb_count                     14546719                       # cumulative count of insts written-back
system.cpu0.iew.wb_producers                 10805198                       # num instructions producing a value
system.cpu0.iew.wb_consumers                 17197266                       # num instructions consuming a value
system.cpu0.iew.wb_rate                      0.476400                       # insts written-back per cycle
system.cpu0.iew.wb_fanout                    0.628309                       # average fanout of values written-back
system.cpu0.commit.commitSquashedInsts       12431410                       # The number of squashed insts skipped by commit
system.cpu0.commit.commitNonSpecStalls              1                       # The number of times commit has been forced to stall to communicate backwards
system.cpu0.commit.branchMispredicts           186713                       # The number of times a branch was mispredicted
system.cpu0.commit.committed_per_cycle::samples     28795017                       # Number of insts commited each cycle
system.cpu0.commit.committed_per_cycle::mean     0.295505                       # Number of insts commited each cycle
system.cpu0.commit.committed_per_cycle::stdev     0.972168                       # Number of insts commited each cycle
system.cpu0.commit.committed_per_cycle::underflows            0      0.00%      0.00% # Number of insts commited each cycle
system.cpu0.commit.committed_per_cycle::0     25114533     87.22%     87.22% # Number of insts commited each cycle
system.cpu0.commit.committed_per_cycle::1      1683945      5.85%     93.07% # Number of insts commited each cycle
system.cpu0.commit.committed_per_cycle::2       406920      1.41%     94.48% # Number of insts commited each cycle
system.cpu0.commit.committed_per_cycle::3      1117997      3.88%     98.36% # Number of insts commited each cycle
system.cpu0.commit.committed_per_cycle::4       183600      0.64%     99.00% # Number of insts commited each cycle
system.cpu0.commit.committed_per_cycle::5       110905      0.39%     99.38% # Number of insts commited each cycle
system.cpu0.commit.committed_per_cycle::6        19030      0.07%     99.45% # Number of insts commited each cycle
system.cpu0.commit.committed_per_cycle::7        10500      0.04%     99.49% # Number of insts commited each cycle
system.cpu0.commit.committed_per_cycle::8       147587      0.51%    100.00% # Number of insts commited each cycle
system.cpu0.commit.committed_per_cycle::overflows            0      0.00%    100.00% # Number of insts commited each cycle
system.cpu0.commit.committed_per_cycle::min_value            0                       # Number of insts commited each cycle
system.cpu0.commit.committed_per_cycle::max_value            8                       # Number of insts commited each cycle
system.cpu0.commit.committed_per_cycle::total     28795017                       # Number of insts commited each cycle
system.cpu0.commit.committedInsts             4257350                       # Number of instructions committed
system.cpu0.commit.committedOps               8509077                       # Number of ops (including micro ops) committed
system.cpu0.commit.swp_count                        0                       # Number of s/w prefetches committed
system.cpu0.commit.refs                       1692435                       # Number of memory references committed
system.cpu0.commit.loads                      1613766                       # Number of loads committed
system.cpu0.commit.membars                          0                       # Number of memory barriers committed
system.cpu0.commit.branches                   1543826                       # Number of branches committed
system.cpu0.commit.vec_insts                        0                       # Number of committed Vector instructions.
system.cpu0.commit.fp_insts                     31496                       # Number of committed floating point instructions.
system.cpu0.commit.int_insts                  8477189                       # Number of committed integer instructions.
system.cpu0.commit.function_calls               13904                       # Number of function calls committed.
system.cpu0.commit.op_class_0::No_OpClass         9527      0.11%      0.11% # Class of committed instruction
system.cpu0.commit.op_class_0::IntAlu         6756535     79.40%     79.52% # Class of committed instruction
system.cpu0.commit.op_class_0::IntMult            556      0.01%     79.52% # Class of committed instruction
system.cpu0.commit.op_class_0::IntDiv           23096      0.27%     79.79% # Class of committed instruction
system.cpu0.commit.op_class_0::FloatAdd         26928      0.32%     80.11% # Class of committed instruction
system.cpu0.commit.op_class_0::FloatCmp             0      0.00%     80.11% # Class of committed instruction
system.cpu0.commit.op_class_0::FloatCvt             0      0.00%     80.11% # Class of committed instruction
system.cpu0.commit.op_class_0::FloatMult            0      0.00%     80.11% # Class of committed instruction
system.cpu0.commit.op_class_0::FloatMultAcc            0      0.00%     80.11% # Class of committed instruction
system.cpu0.commit.op_class_0::FloatDiv             0      0.00%     80.11% # Class of committed instruction
system.cpu0.commit.op_class_0::FloatMisc            0      0.00%     80.11% # Class of committed instruction
system.cpu0.commit.op_class_0::FloatSqrt            0      0.00%     80.11% # Class of committed instruction
system.cpu0.commit.op_class_0::SimdAdd              0      0.00%     80.11% # Class of committed instruction
system.cpu0.commit.op_class_0::SimdAddAcc            0      0.00%     80.11% # Class of committed instruction
system.cpu0.commit.op_class_0::SimdAlu              0      0.00%     80.11% # Class of committed instruction
system.cpu0.commit.op_class_0::SimdCmp              0      0.00%     80.11% # Class of committed instruction
system.cpu0.commit.op_class_0::SimdCvt              0      0.00%     80.11% # Class of committed instruction
system.cpu0.commit.op_class_0::SimdMisc             0      0.00%     80.11% # Class of committed instruction
system.cpu0.commit.op_class_0::SimdMult             0      0.00%     80.11% # Class of committed instruction
system.cpu0.commit.op_class_0::SimdMultAcc            0      0.00%     80.11% # Class of committed instruction
system.cpu0.commit.op_class_0::SimdShift            0      0.00%     80.11% # Class of committed instruction
system.cpu0.commit.op_class_0::SimdShiftAcc            0      0.00%     80.11% # Class of committed instruction
system.cpu0.commit.op_class_0::SimdSqrt             0      0.00%     80.11% # Class of committed instruction
system.cpu0.commit.op_class_0::SimdFloatAdd            0      0.00%     80.11% # Class of committed instruction
system.cpu0.commit.op_class_0::SimdFloatAlu            0      0.00%     80.11% # Class of committed instruction
system.cpu0.commit.op_class_0::SimdFloatCmp            0      0.00%     80.11% # Class of committed instruction
system.cpu0.commit.op_class_0::SimdFloatCvt            0      0.00%     80.11% # Class of committed instruction
system.cpu0.commit.op_class_0::SimdFloatDiv            0      0.00%     80.11% # Class of committed instruction
system.cpu0.commit.op_class_0::SimdFloatMisc            0      0.00%     80.11% # Class of committed instruction
system.cpu0.commit.op_class_0::SimdFloatMult            0      0.00%     80.11% # Class of committed instruction
system.cpu0.commit.op_class_0::SimdFloatMultAcc            0      0.00%     80.11% # Class of committed instruction
system.cpu0.commit.op_class_0::SimdFloatSqrt            0      0.00%     80.11% # Class of committed instruction
system.cpu0.commit.op_class_0::MemRead        1609198     18.91%     99.02% # Class of committed instruction
system.cpu0.commit.op_class_0::MemWrite         78669      0.92%     99.95% # Class of committed instruction
system.cpu0.commit.op_class_0::FloatMemRead         4568      0.05%    100.00% # Class of committed instruction
system.cpu0.commit.op_class_0::FloatMemWrite            0      0.00%    100.00% # Class of committed instruction
system.cpu0.commit.op_class_0::IprAccess            0      0.00%    100.00% # Class of committed instruction
system.cpu0.commit.op_class_0::InstPrefetch            0      0.00%    100.00% # Class of committed instruction
system.cpu0.commit.op_class_0::total          8509077                       # Class of committed instruction
system.cpu0.commit.bw_lim_events               147587                       # number cycles where commit BW limit reached
system.cpu0.rob.rob_reads                    49587917                       # The number of ROB reads
system.cpu0.rob.rob_writes                   43613404                       # The number of ROB writes
system.cpu0.timesIdled                            388                       # Number of times that the entire CPU went into an idle state and unscheduled itself
system.cpu0.idleCycles                          11972                       # Total number of cycles that the CPU has spent unscheduled due to idling
system.cpu0.committedInsts                    4257350                       # Number of Instructions Simulated
system.cpu0.committedOps                      8509077                       # Number of Ops (including micro ops) Simulated
system.cpu0.cpi                              7.172229                       # CPI: Cycles Per Instruction
system.cpu0.cpi_total                        7.172229                       # CPI: Total CPI of All Threads
system.cpu0.ipc                              0.139427                       # IPC: Instructions Per Cycle
system.cpu0.ipc_total                        0.139427                       # IPC: Total IPC of All Threads
system.cpu0.int_regfile_reads                14735062                       # number of integer regfile reads
system.cpu0.int_regfile_writes               12582697                       # number of integer regfile writes
system.cpu0.fp_regfile_reads                    76935                       # number of floating regfile reads
system.cpu0.fp_regfile_writes                   38406                       # number of floating regfile writes
system.cpu0.cc_regfile_reads                  9841180                       # number of cc regfile reads
system.cpu0.cc_regfile_writes                 4081330                       # number of cc regfile writes
system.cpu0.misc_regfile_reads                7939426                       # number of misc regfile reads
system.cpu0.dcache.tags.pwrStateResidencyTicks::UNDEFINED  15267344125                       # Cumulative time (in ticks) in various power states
system.cpu0.dcache.tags.replacements           856463                       # number of replacements
system.cpu0.dcache.tags.tagsinuse                 512                       # Cycle average of tags in use
system.cpu0.dcache.tags.total_refs             908376                       # Total number of references to valid blocks.
system.cpu0.dcache.tags.sampled_refs           856463                       # Sample count of references to valid blocks.
system.cpu0.dcache.tags.avg_refs             1.060613                       # Average number of references to valid blocks.
system.cpu0.dcache.tags.warmup_cycle                0                       # Cycle when the warmup percentage was hit.
system.cpu0.dcache.tags.occ_blocks::cpu0.data          512                       # Average occupied blocks per requestor
system.cpu0.dcache.tags.occ_percent::cpu0.data            1                       # Average percentage of cache occupancy
system.cpu0.dcache.tags.occ_percent::total            1                       # Average percentage of cache occupancy
system.cpu0.dcache.tags.occ_task_id_blocks::1024          512                       # Occupied blocks per task id
system.cpu0.dcache.tags.age_task_id_blocks_1024::0          480                       # Occupied blocks per task id
system.cpu0.dcache.tags.age_task_id_blocks_1024::1           32                       # Occupied blocks per task id
system.cpu0.dcache.tags.occ_task_id_percent::1024            1                       # Percentage of cache occupancy per task id
system.cpu0.dcache.tags.tag_accesses         10248875                       # Number of tag accesses
system.cpu0.dcache.tags.data_accesses        10248875                       # Number of data accesses
system.cpu0.dcache.pwrStateResidencyTicks::UNDEFINED  15267344125                       # Cumulative time (in ticks) in various power states
system.cpu0.dcache.ReadReq_hits::cpu0.data       834387                       # number of ReadReq hits
system.cpu0.dcache.ReadReq_hits::total         834387                       # number of ReadReq hits
system.cpu0.dcache.WriteReq_hits::cpu0.data        75146                       # number of WriteReq hits
system.cpu0.dcache.WriteReq_hits::total         75146                       # number of WriteReq hits
system.cpu0.dcache.demand_hits::cpu0.data       909533                       # number of demand (read+write) hits
system.cpu0.dcache.demand_hits::total          909533                       # number of demand (read+write) hits
system.cpu0.dcache.overall_hits::cpu0.data       909533                       # number of overall hits
system.cpu0.dcache.overall_hits::total         909533                       # number of overall hits
system.cpu0.dcache.ReadReq_misses::cpu0.data      1435047                       # number of ReadReq misses
system.cpu0.dcache.ReadReq_misses::total      1435047                       # number of ReadReq misses
system.cpu0.dcache.WriteReq_misses::cpu0.data         3523                       # number of WriteReq misses
system.cpu0.dcache.WriteReq_misses::total         3523                       # number of WriteReq misses
system.cpu0.dcache.demand_misses::cpu0.data      1438570                       # number of demand (read+write) misses
system.cpu0.dcache.demand_misses::total       1438570                       # number of demand (read+write) misses
system.cpu0.dcache.overall_misses::cpu0.data      1438570                       # number of overall misses
system.cpu0.dcache.overall_misses::total      1438570                       # number of overall misses
system.cpu0.dcache.ReadReq_miss_latency::cpu0.data  30923848000                       # number of ReadReq miss cycles
system.cpu0.dcache.ReadReq_miss_latency::total  30923848000                       # number of ReadReq miss cycles
system.cpu0.dcache.WriteReq_miss_latency::cpu0.data    136997985                       # number of WriteReq miss cycles
system.cpu0.dcache.WriteReq_miss_latency::total    136997985                       # number of WriteReq miss cycles
system.cpu0.dcache.demand_miss_latency::cpu0.data  31060845985                       # number of demand (read+write) miss cycles
system.cpu0.dcache.demand_miss_latency::total  31060845985                       # number of demand (read+write) miss cycles
[...]
system.l2.demand_miss_rate::cpu0.data        0.086926                       # miss rate for demand accesses
system.l2.demand_miss_rate::total            0.086927                       # miss rate for demand accesses
system.l2.overall_miss_rate::cpu0.inst       0.142857                       # miss rate for overall accesses
system.l2.overall_miss_rate::cpu0.data       0.086926                       # miss rate for overall accesses
system.l2.overall_miss_rate::total           0.086927                       # miss rate for overall accesses
system.l2.ReadExReq_avg_miss_latency::cpu0.data 128508.563900                       # average ReadExReq miss latency
system.l2.ReadExReq_avg_miss_latency::total 128508.563900                       # average ReadExReq miss latency
system.l2.ReadCleanReq_avg_miss_latency::cpu0.inst        97000                       # average ReadCleanReq miss latency
system.l2.ReadCleanReq_avg_miss_latency::total        97000                       # average ReadCleanReq miss latency
system.l2.ReadSharedReq_avg_miss_latency::cpu0.data 99759.865653                       # average ReadSharedReq miss latency
system.l2.ReadSharedReq_avg_miss_latency::total 99759.865653                       # average ReadSharedReq miss latency
system.l2.demand_avg_miss_latency::cpu0.inst        97000                       # average overall miss latency
system.l2.demand_avg_miss_latency::cpu0.data 100052.955715                       # average overall miss latency
system.l2.demand_avg_miss_latency::total 100052.873702                       # average overall miss latency
system.l2.overall_avg_miss_latency::cpu0.inst        97000                       # average overall miss latency
system.l2.overall_avg_miss_latency::cpu0.data 100052.955715                       # average overall miss latency
system.l2.overall_avg_miss_latency::total 100052.873702                       # average overall miss latency
system.l2.blocked_cycles::no_mshrs                  0                       # number of cycles access was blocked
system.l2.blocked_cycles::no_targets                0                       # number of cycles access was blocked
system.l2.blocked::no_mshrs                         0                       # number of cycles access was blocked
system.l2.blocked::no_targets                       0                       # number of cycles access was blocked
system.l2.avg_blocked_cycles::no_mshrs            nan                       # average number of cycles each access was blocked
system.l2.avg_blocked_cycles::no_targets          nan                       # average number of cycles each access was blocked
system.l2.writebacks::writebacks                 6563                       # number of writebacks
system.l2.writebacks::total                      6563                       # number of writebacks
system.l2.ReadExReq_mshr_misses::cpu0.data          759                       # number of ReadExReq MSHR misses
system.l2.ReadExReq_mshr_misses::total            759                       # number of ReadExReq MSHR misses
system.l2.ReadCleanReq_mshr_misses::cpu0.inst            2                       # number of ReadCleanReq MSHR misses
system.l2.ReadCleanReq_mshr_misses::total            2                       # number of ReadCleanReq MSHR misses
system.l2.ReadSharedReq_mshr_misses::cpu0.data        73690                       # number of ReadSharedReq MSHR misses
system.l2.ReadSharedReq_mshr_misses::total        73690                       # number of ReadSharedReq MSHR misses
system.l2.demand_mshr_misses::cpu0.inst             2                       # number of demand (read+write) MSHR misses
system.l2.demand_mshr_misses::cpu0.data         74449                       # number of demand (read+write) MSHR misses
system.l2.demand_mshr_misses::total             74451                       # number of demand (read+write) MSHR misses
system.l2.overall_mshr_misses::cpu0.inst            2                       # number of overall MSHR misses
system.l2.overall_mshr_misses::cpu0.data        74449                       # number of overall MSHR misses
system.l2.overall_mshr_misses::total            74451                       # number of overall MSHR misses
system.l2.ReadExReq_mshr_miss_latency::cpu0.data     89948000                       # number of ReadExReq MSHR miss cycles
system.l2.ReadExReq_mshr_miss_latency::total     89948000                       # number of ReadExReq MSHR miss cycles
system.l2.ReadCleanReq_mshr_miss_latency::cpu0.inst       174000                       # number of ReadCleanReq MSHR miss cycles
system.l2.ReadCleanReq_mshr_miss_latency::total       174000                       # number of ReadCleanReq MSHR miss cycles
system.l2.ReadSharedReq_mshr_miss_latency::cpu0.data   6614404500                       # number of ReadSharedReq MSHR miss cycles
system.l2.ReadSharedReq_mshr_miss_latency::total   6614404500                       # number of ReadSharedReq MSHR miss cycles
system.l2.demand_mshr_miss_latency::cpu0.inst       174000                       # number of demand (read+write) MSHR miss cycles
system.l2.demand_mshr_miss_latency::cpu0.data   6704352500                       # number of demand (read+write) MSHR miss cycles
system.l2.demand_mshr_miss_latency::total   6704526500                       # number of demand (read+write) MSHR miss cycles
system.l2.overall_mshr_miss_latency::cpu0.inst       174000                       # number of overall MSHR miss cycles
system.l2.overall_mshr_miss_latency::cpu0.data   6704352500                       # number of overall MSHR miss cycles
system.l2.overall_mshr_miss_latency::total   6704526500                       # number of overall MSHR miss cycles
system.l2.ReadExReq_mshr_miss_rate::cpu0.data     0.216363                       # mshr miss rate for ReadExReq accesses
system.l2.ReadExReq_mshr_miss_rate::total     0.216363                       # mshr miss rate for ReadExReq accesses
system.l2.ReadCleanReq_mshr_miss_rate::cpu0.inst     0.142857                       # mshr miss rate for ReadCleanReq accesses
system.l2.ReadCleanReq_mshr_miss_rate::total     0.142857                       # mshr miss rate for ReadCleanReq accesses
system.l2.ReadSharedReq_mshr_miss_rate::cpu0.data     0.086394                       # mshr miss rate for ReadSharedReq accesses
system.l2.ReadSharedReq_mshr_miss_rate::total     0.086394                       # mshr miss rate for ReadSharedReq accesses
system.l2.demand_mshr_miss_rate::cpu0.inst     0.142857                       # mshr miss rate for demand accesses
system.l2.demand_mshr_miss_rate::cpu0.data     0.086926                       # mshr miss rate for demand accesses
system.l2.demand_mshr_miss_rate::total       0.086927                       # mshr miss rate for demand accesses
system.l2.overall_mshr_miss_rate::cpu0.inst     0.142857                       # mshr miss rate for overall accesses
system.l2.overall_mshr_miss_rate::cpu0.data     0.086926                       # mshr miss rate for overall accesses
system.l2.overall_mshr_miss_rate::total      0.086927                       # mshr miss rate for overall accesses
system.l2.ReadExReq_avg_mshr_miss_latency::cpu0.data 118508.563900                       # average ReadExReq mshr miss latency
system.l2.ReadExReq_avg_mshr_miss_latency::total 118508.563900                       # average ReadExReq mshr miss latency
system.l2.ReadCleanReq_avg_mshr_miss_latency::cpu0.inst        87000                       # average ReadCleanReq mshr miss latency
system.l2.ReadCleanReq_avg_mshr_miss_latency::total        87000                       # average ReadCleanReq mshr miss latency
system.l2.ReadSharedReq_avg_mshr_miss_latency::cpu0.data 89759.865653                       # average ReadSharedReq mshr miss latency
system.l2.ReadSharedReq_avg_mshr_miss_latency::total 89759.865653                       # average ReadSharedReq mshr miss latency
system.l2.demand_avg_mshr_miss_latency::cpu0.inst        87000                       # average overall mshr miss latency
system.l2.demand_avg_mshr_miss_latency::cpu0.data 90052.955715                       # average overall mshr miss latency
system.l2.demand_avg_mshr_miss_latency::total 90052.873702                       # average overall mshr miss latency
system.l2.overall_avg_mshr_miss_latency::cpu0.inst        87000                       # average overall mshr miss latency
system.l2.overall_avg_mshr_miss_latency::cpu0.data 90052.955715                       # average overall mshr miss latency
system.l2.overall_avg_mshr_miss_latency::total 90052.873702                       # average overall mshr miss latency
system.membus.snoop_filter.tot_requests        148900                       # Total number of requests made to the snoop filter.
system.membus.snoop_filter.hit_single_requests        74451                       # Number of requests hitting in the snoop filter with a single holder of the requested data.
system.membus.snoop_filter.hit_multi_requests            0                       # Number of requests hitting in the snoop filter with multiple (>1) holders of the requested data.
system.membus.snoop_filter.tot_snoops               0                       # Total number of snoops made to the snoop filter.
system.membus.snoop_filter.hit_single_snoops            0                       # Number of snoops hitting in the snoop filter with a single holder of the requested data.
system.membus.snoop_filter.hit_multi_snoops            0                       # Number of snoops hitting in the snoop filter with multiple (>1) holders of the requested data.
system.membus.pwrStateResidencyTicks::UNDEFINED  15267344125                       # Cumulative time (in ticks) in various power states
system.membus.trans_dist::ReadResp              73692                       # Transaction distribution
system.membus.trans_dist::WritebackDirty         6563                       # Transaction distribution
system.membus.trans_dist::CleanEvict            67886                       # Transaction distribution
system.membus.trans_dist::ReadExReq               759                       # Transaction distribution
system.membus.trans_dist::ReadExResp              759                       # Transaction distribution
system.membus.trans_dist::ReadSharedReq         73692                       # Transaction distribution
system.membus.pkt_count_system.l2.mem_side::system.mem_ctrls.port       223351                       # Packet count per connected master and slave (bytes)
system.membus.pkt_count_system.l2.mem_side::total       223351                       # Packet count per connected master and slave (bytes)
system.membus.pkt_count::total                 223351                       # Packet count per connected master and slave (bytes)
system.membus.pkt_size_system.l2.mem_side::system.mem_ctrls.port      5184896                       # Cumulative packet size per connected master and slave (bytes)
system.membus.pkt_size_system.l2.mem_side::total      5184896                       # Cumulative packet size per connected master and slave (bytes)
system.membus.pkt_size::total                 5184896                       # Cumulative packet size per connected master and slave (bytes)
system.membus.snoops                                0                       # Total snoops (count)
system.membus.snoopTraffic                          0                       # Total snoop traffic (bytes)
system.membus.snoop_fanout::samples             74451                       # Request fanout histogram
system.membus.snoop_fanout::mean                    0                       # Request fanout histogram
system.membus.snoop_fanout::stdev                   0                       # Request fanout histogram
system.membus.snoop_fanout::underflows              0      0.00%      0.00% # Request fanout histogram
system.membus.snoop_fanout::0                   74451    100.00%    100.00% # Request fanout histogram
system.membus.snoop_fanout::1                       0      0.00%    100.00% # Request fanout histogram
system.membus.snoop_fanout::overflows               0      0.00%    100.00% # Request fanout histogram
system.membus.snoop_fanout::min_value               0                       # Request fanout histogram
system.membus.snoop_fanout::max_value               0                       # Request fanout histogram
system.membus.snoop_fanout::total               74451                       # Request fanout histogram
system.membus.reqLayer12.occupancy          196172500                       # Layer occupancy (ticks)
system.membus.reqLayer12.utilization              1.3                       # Layer utilization (%)
system.membus.respLayer1.occupancy          410339000                       # Layer occupancy (ticks)
system.membus.respLayer1.utilization              2.7                       # Layer utilization (%)
system.tol2bus.snoop_filter.tot_requests      1712953                       # Total number of requests made to the snoop filter.
system.tol2bus.snoop_filter.hit_single_requests       856479                       # Number of requests hitting in the snoop filter with a single holder of the requested data.
system.tol2bus.snoop_filter.hit_multi_requests         1819                       # Number of requests hitting in the snoop filter with multiple (>1) holders of the requested data.
system.tol2bus.snoop_filter.tot_snoops             10                       # Total number of snoops made to the snoop filter.
system.tol2bus.snoop_filter.hit_single_snoops           10                       # Number of snoops hitting in the snoop filter with a single holder of the requested data.
system.tol2bus.snoop_filter.hit_multi_snoops            0                       # Number of snoops hitting in the snoop filter with multiple (>1) holders of the requested data.
system.tol2bus.pwrStateResidencyTicks::UNDEFINED  15267344125                       # Cumulative time (in ticks) in various power states
system.tol2bus.trans_dist::ReadResp            852968                       # Transaction distribution
system.tol2bus.trans_dist::WritebackDirty       225537                       # Transaction distribution
system.tol2bus.trans_dist::WritebackClean           14                       # Transaction distribution
system.tol2bus.trans_dist::CleanEvict          705385                       # Transaction distribution
system.tol2bus.trans_dist::ReadExReq             3508                       # Transaction distribution
system.tol2bus.trans_dist::ReadExResp            3508                       # Transaction distribution
system.tol2bus.trans_dist::ReadCleanReq            14                       # Transaction distribution
system.tol2bus.trans_dist::ReadSharedReq       852954                       # Transaction distribution
system.tol2bus.pkt_count_system.cpu0.icache.mem_side::system.l2.cpu_side           42                       # Packet count per connected master and slave (bytes)
system.tol2bus.pkt_count_system.cpu0.dcache.mem_side::system.l2.cpu_side      2569387                       # Packet count per connected master and slave (bytes)
system.tol2bus.pkt_count::total               2569429                       # Packet count per connected master and slave (bytes)
system.tol2bus.pkt_size_system.cpu0.icache.mem_side::system.l2.cpu_side         1792                       # Cumulative packet size per connected master and slave (bytes)
system.tol2bus.pkt_size_system.cpu0.dcache.mem_side::system.l2.cpu_side     68827904                       # Cumulative packet size per connected master and slave (bytes)
system.tol2bus.pkt_size::total               68829696                       # Cumulative packet size per connected master and slave (bytes)
system.tol2bus.snoops                           74459                       # Total snoops (count)
system.tol2bus.snoopTraffic                    420032                       # Total snoop traffic (bytes)
system.tol2bus.snoop_fanout::samples           930935                       # Request fanout histogram
system.tol2bus.snoop_fanout::mean            0.001967                       # Request fanout histogram
system.tol2bus.snoop_fanout::stdev           0.044305                       # Request fanout histogram
system.tol2bus.snoop_fanout::underflows             0      0.00%      0.00% # Request fanout histogram
system.tol2bus.snoop_fanout::0                 929104     99.80%     99.80% # Request fanout histogram
system.tol2bus.snoop_fanout::1                   1831      0.20%    100.00% # Request fanout histogram
system.tol2bus.snoop_fanout::2                      0      0.00%    100.00% # Request fanout histogram
system.tol2bus.snoop_fanout::3                      0      0.00%    100.00% # Request fanout histogram
system.tol2bus.snoop_fanout::4                      0      0.00%    100.00% # Request fanout histogram
system.tol2bus.snoop_fanout::5                      0      0.00%    100.00% # Request fanout histogram
system.tol2bus.snoop_fanout::6                      0      0.00%    100.00% # Request fanout histogram
system.tol2bus.snoop_fanout::7                      0      0.00%    100.00% # Request fanout histogram
system.tol2bus.snoop_fanout::8                      0      0.00%    100.00% # Request fanout histogram
system.tol2bus.snoop_fanout::9                      0      0.00%    100.00% # Request fanout histogram
system.tol2bus.snoop_fanout::10                     0      0.00%    100.00% # Request fanout histogram
system.tol2bus.snoop_fanout::11                     0      0.00%    100.00% # Request fanout histogram
system.tol2bus.snoop_fanout::12                     0      0.00%    100.00% # Request fanout histogram
system.tol2bus.snoop_fanout::13                     0      0.00%    100.00% # Request fanout histogram
system.tol2bus.snoop_fanout::14                     0      0.00%    100.00% # Request fanout histogram
system.tol2bus.snoop_fanout::15                     0      0.00%    100.00% # Request fanout histogram
system.tol2bus.snoop_fanout::16                     0      0.00%    100.00% # Request fanout histogram
system.tol2bus.snoop_fanout::17                     0      0.00%    100.00% # Request fanout histogram
system.tol2bus.snoop_fanout::18                     0      0.00%    100.00% # Request fanout histogram
system.tol2bus.snoop_fanout::19                     0      0.00%    100.00% # Request fanout histogram
system.tol2bus.snoop_fanout::20                     0      0.00%    100.00% # Request fanout histogram
system.tol2bus.snoop_fanout::21                     0      0.00%    100.00% # Request fanout histogram
system.tol2bus.snoop_fanout::22                     0      0.00%    100.00% # Request fanout histogram
system.tol2bus.snoop_fanout::23                     0      0.00%    100.00% # Request fanout histogram
system.tol2bus.snoop_fanout::24                     0      0.00%    100.00% # Request fanout histogram
system.tol2bus.snoop_fanout::overflows              0      0.00%    100.00% # Request fanout histogram
system.tol2bus.snoop_fanout::min_value              0                       # Request fanout histogram
system.tol2bus.snoop_fanout::max_value              1                       # Request fanout histogram
system.tol2bus.snoop_fanout::total             930935                       # Request fanout histogram
system.tol2bus.reqLayer0.occupancy         1075464500                       # Layer occupancy (ticks)
system.tol2bus.reqLayer0.utilization              7.0                       # Layer utilization (%)
system.tol2bus.respLayer0.occupancy             21000                       # Layer occupancy (ticks)
system.tol2bus.respLayer0.utilization             0.0                       # Layer utilization (%)
system.tol2bus.respLayer1.occupancy        1284693000                       # Layer occupancy (ticks)
system.tol2bus.respLayer1.utilization             8.4                       # Layer utilization (%)

---------- End Simulation Statistics   ----------
