
---------- Begin Simulation Statistics ----------
sim_seconds                                  0.015267                       # Number of seconds simulated
sim_ticks                                 15267344125                       # Number of ticks simulated
final_tick                               641228453250                       # Number of ticks from beginning of simulation (restored from checkpoints and never reset)
sim_freq                                 1000000000000                       # Frequency of simulated ticks
host_inst_rate                               11035747                       # Simulator instruction rate (inst/s)
host_op_rate                                 20876942                       # Simulator op (including micro ops) rate (op/s)
host_tick_rate                              118845784                       # Simulator tick rate (ticks/s)
host_mem_usage                                3400668                       # Number of bytes of host memory used
host_seconds                                   128.46                       # Real time elapsed on the host
sim_insts                                  1417690210                       # Number of instructions simulated
sim_ops                                    2681924524                       # Number of ops (including micro ops) simulated
system.voltage_domain.voltage                       1                       # Voltage in Volts
system.clk_domain.clock                          1000                       # Clock period in ticks
system.mem_ctrls.pwrStateResidencyTicks::UNDEFINED  15267344125                       # Cumulative time (in ticks) in various power states
system.mem_ctrls.bytes_read::cpu0.inst           9920                       # Number of bytes read from this memory
system.mem_ctrls.bytes_read::cpu0.data       15097344                       # Number of bytes read from this memory
system.mem_ctrls.bytes_read::total           15107264                       # Number of bytes read from this memory
system.mem_ctrls.bytes_inst_read::cpu0.inst         9920                       # Number of instructions bytes read from this memory
system.mem_ctrls.bytes_inst_read::total          9920                       # Number of instructions bytes read from this memory
system.mem_ctrls.bytes_written::writebacks      4699200                       # Number of bytes written to this memory
system.mem_ctrls.bytes_written::total         4699200                       # Number of bytes written to this memory
system.mem_ctrls.num_reads::cpu0.inst             155                       # Number of read requests responded to by this memory
system.mem_ctrls.num_reads::cpu0.data          235896                       # Number of read requests responded to by this memory
system.mem_ctrls.num_reads::total              236051                       # Number of read requests responded to by this memory
system.mem_ctrls.num_writes::writebacks         73425                       # Number of write requests responded to by this memory
system.mem_ctrls.num_writes::total              73425                       # Number of write requests responded to by this memory
system.mem_ctrls.bw_read::cpu0.inst            649753                       # Total read bandwidth from this memory (bytes/s)
system.mem_ctrls.bw_read::cpu0.data         988865115                       # Total read bandwidth from this memory (bytes/s)
system.mem_ctrls.bw_read::total             989514868                       # Total read bandwidth from this memory (bytes/s)
system.mem_ctrls.bw_inst_read::cpu0.inst       649753                       # Instruction read bandwidth from this memory (bytes/s)
system.mem_ctrls.bw_inst_read::total           649753                       # Instruction read bandwidth from this memory (bytes/s)
system.mem_ctrls.bw_write::writebacks       307794202                       # Write bandwidth from this memory (bytes/s)
system.mem_ctrls.bw_write::total            307794202                       # Write bandwidth from this memory (bytes/s)
system.mem_ctrls.bw_total::writebacks       307794202                       # Total bandwidth to/from this memory (bytes/s)
system.mem_ctrls.bw_total::cpu0.inst           649753                       # Total bandwidth to/from this memory (bytes/s)
system.mem_ctrls.bw_total::cpu0.data        988865115                       # Total bandwidth to/from this memory (bytes/s)
system.mem_ctrls.bw_total::total           1297309069                       # Total bandwidth to/from this memory (bytes/s)
system.mem_ctrls.readReqs                      236048                       # Number of read requests accepted
system.mem_ctrls.writeReqs                      73425                       # Number of write requests accepted
system.mem_ctrls.readBursts                    236048                       # Number of DRAM read bursts, including those serviced by the write queue
system.mem_ctrls.writeBursts                    73425                       # Number of DRAM write bursts, including those merged in the write queue
system.mem_ctrls.bytesReadDRAM               15103744                       # Total number of bytes read from DRAM
system.mem_ctrls.bytesReadWrQ                    3328                       # Total number of bytes read from write queue
system.mem_ctrls.bytesWritten                 4698752                       # Total number of bytes written to DRAM
system.mem_ctrls.bytesReadSys                15107072                       # Total read bytes from the system interface side
system.mem_ctrls.bytesWrittenSys              4699200                       # Total written bytes from the system interface side
system.mem_ctrls.servicedByWrQ                     52                       # Number of DRAM read bursts serviced by the write queue
system.mem_ctrls.mergedWrBursts                     0                       # Number of DRAM write bursts merged with an existing one
system.mem_ctrls.neitherReadNorWriteReqs            0                       # Number of requests that are neither read nor write
system.mem_ctrls.perBankRdBursts::0             14089                       # Per bank write bursts
system.mem_ctrls.perBankRdBursts::1             14468                       # Per bank write bursts
system.mem_ctrls.perBankRdBursts::2             14610                       # Per bank write bursts
system.mem_ctrls.perBankRdBursts::3             14686                       # Per bank write bursts
system.mem_ctrls.perBankRdBursts::4             14389                       # Per bank write bursts
system.mem_ctrls.perBankRdBursts::5             14405                       # Per bank write bursts
system.mem_ctrls.perBankRdBursts::6             14467                       # Per bank write bursts
system.mem_ctrls.perBankRdBursts::7             14560                       # Per bank write bursts
system.mem_ctrls.perBankRdBursts::8             14451                       # Per bank write bursts
system.mem_ctrls.perBankRdBursts::9             14914                       # Per bank write bursts
system.mem_ctrls.perBankRdBursts::10            14661                       # Per bank write bursts
system.mem_ctrls.perBankRdBursts::11            14835                       # Per bank write bursts
system.mem_ctrls.perBankRdBursts::12            15760                       # Per bank write bursts
system.mem_ctrls.perBankRdBursts::13            15461                       # Per bank write bursts
system.mem_ctrls.perBankRdBursts::14            15280                       # Per bank write bursts
system.mem_ctrls.perBankRdBursts::15            14960                       # Per bank write bursts
system.mem_ctrls.perBankWrBursts::0              4468                       # Per bank write bursts
system.mem_ctrls.perBankWrBursts::1              4351                       # Per bank write bursts
system.mem_ctrls.perBankWrBursts::2              4457                       # Per bank write bursts
system.mem_ctrls.perBankWrBursts::3              4524                       # Per bank write bursts
system.mem_ctrls.perBankWrBursts::4              4534                       # Per bank write bursts
system.mem_ctrls.perBankWrBursts::5              4400                       # Per bank write bursts
system.mem_ctrls.perBankWrBursts::6              4680                       # Per bank write bursts
system.mem_ctrls.perBankWrBursts::7              4597                       # Per bank write bursts
system.mem_ctrls.perBankWrBursts::8              4627                       # Per bank write bursts
system.mem_ctrls.perBankWrBursts::9              4768                       # Per bank write bursts
system.mem_ctrls.perBankWrBursts::10             4676                       # Per bank write bursts
system.mem_ctrls.perBankWrBursts::11             4529                       # Per bank write bursts
system.mem_ctrls.perBankWrBursts::12             4766                       # Per bank write bursts
system.mem_ctrls.perBankWrBursts::13             4715                       # Per bank write bursts
system.mem_ctrls.perBankWrBursts::14             4637                       # Per bank write bursts
system.mem_ctrls.perBankWrBursts::15             4689                       # Per bank write bursts
system.mem_ctrls.numRdRetry                         0                       # Number of times read queue was full causing retry
system.mem_ctrls.numWrRetry                         0                       # Number of times write queue was full causing retry
system.mem_ctrls.totGap                   15267570000                       # Total gap between requests
system.mem_ctrls.readPktSize::0                     0                       # Read request sizes (log2)
system.mem_ctrls.readPktSize::1                     0                       # Read request sizes (log2)
system.mem_ctrls.readPktSize::2                     0                       # Read request sizes (log2)
system.mem_ctrls.readPktSize::3                     0                       # Read request sizes (log2)
system.mem_ctrls.readPktSize::4                     0                       # Read request sizes (log2)
system.mem_ctrls.readPktSize::5                     0                       # Read request sizes (log2)
system.mem_ctrls.readPktSize::6                236048                       # Read request sizes (log2)
system.mem_ctrls.writePktSize::0                    0                       # Write request sizes (log2)
system.mem_ctrls.writePktSize::1                    0                       # Write request sizes (log2)
system.mem_ctrls.writePktSize::2                    0                       # Write request sizes (log2)
system.mem_ctrls.writePktSize::3                    0                       # Write request sizes (log2)
system.mem_ctrls.writePktSize::4                    0                       # Write request sizes (log2)
system.mem_ctrls.writePktSize::5                    0                       # Write request sizes (log2)
system.mem_ctrls.writePktSize::6                73425                       # Write request sizes (log2)
system.mem_ctrls.rdQLenPdf::0                  146507                       # What read queue length does an incoming req see
system.mem_ctrls.rdQLenPdf::1                   40613                       # What read queue length does an incoming req see
system.mem_ctrls.rdQLenPdf::2                   30176                       # What read queue length does an incoming req see
system.mem_ctrls.rdQLenPdf::3                   18700                       # What read queue length does an incoming req see
system.mem_ctrls.rdQLenPdf::4                       0                       # What read queue length does an incoming req see
system.mem_ctrls.rdQLenPdf::5                       0                       # What read queue length does an incoming req see
system.mem_ctrls.rdQLenPdf::6                       0                       # What read queue length does an incoming req see
system.mem_ctrls.rdQLenPdf::7                       0                       # What read queue length does an incoming req see
system.mem_ctrls.rdQLenPdf::8                       0                       # What read queue length does an incoming req see
system.mem_ctrls.rdQLenPdf::9                       0                       # What read queue length does an incoming req see
system.mem_ctrls.rdQLenPdf::10                      0                       # What read queue length does an incoming req see
system.mem_ctrls.rdQLenPdf::11                      0                       # What read queue length does an incoming req see
system.mem_ctrls.rdQLenPdf::12                      0                       # What read queue length does an incoming req see
system.mem_ctrls.rdQLenPdf::13                      0                       # What read queue length does an incoming req see
system.mem_ctrls.rdQLenPdf::14                      0                       # What read queue length does an incoming req see
system.mem_ctrls.rdQLenPdf::15                      0                       # What read queue length does an incoming req see
system.mem_ctrls.rdQLenPdf::16                      0                       # What read queue length does an incoming req see
system.mem_ctrls.rdQLenPdf::17                      0                       # What read queue length does an incoming req see
system.mem_ctrls.rdQLenPdf::18                      0                       # What read queue length does an incoming req see
system.mem_ctrls.rdQLenPdf::19                      0                       # What read queue length does an incoming req see
system.mem_ctrls.rdQLenPdf::20                      0                       # What read queue length does an incoming req see
system.mem_ctrls.rdQLenPdf::21                      0                       # What read queue length does an incoming req see
system.mem_ctrls.rdQLenPdf::22                      0                       # What read queue length does an incoming req see
system.mem_ctrls.rdQLenPdf::23                      0                       # What read queue length does an incoming req see
system.mem_ctrls.rdQLenPdf::24                      0                       # What read queue length does an incoming req see
system.mem_ctrls.rdQLenPdf::25                      0                       # What read queue length does an incoming req see
system.mem_ctrls.rdQLenPdf::26                      0                       # What read queue length does an incoming req see
system.mem_ctrls.rdQLenPdf::27                      0                       # What read queue length does an incoming req see
system.mem_ctrls.rdQLenPdf::28                      0                       # What read queue length does an incoming req see
system.mem_ctrls.rdQLenPdf::29                      0                       # What read queue length does an incoming req see
system.mem_ctrls.rdQLenPdf::30                      0                       # What read queue length does an incoming req see
system.mem_ctrls.rdQLenPdf::31                      0                       # What read queue length does an incoming req see
system.mem_ctrls.wrQLenPdf::0                       0                       # What write queue length does an incoming req see
system.mem_ctrls.wrQLenPdf::1                       0                       # What write queue length does an incoming req see
system.mem_ctrls.wrQLenPdf::2                       0                       # What write queue length does an incoming req see
system.mem_ctrls.wrQLenPdf::3                       0                       # What write queue length does an incoming req see
system.mem_ctrls.wrQLenPdf::4                       0                       # What write queue length does an incoming req see
system.mem_ctrls.wrQLenPdf::5                       0                       # What write queue length does an incoming req see
system.mem_ctrls.wrQLenPdf::6                       0                       # What write queue length does an incoming req see
system.mem_ctrls.wrQLenPdf::7                       0                       # What write queue length does an incoming req see
system.mem_ctrls.wrQLenPdf::8                       0                       # What write queue length does an incoming req see
system.mem_ctrls.wrQLenPdf::9                       0                       # What write queue length does an incoming req see
system.mem_ctrls.wrQLenPdf::10                      0                       # What write queue length does an incoming req see
system.mem_ctrls.wrQLenPdf::11                      0                       # What write queue length does an incoming req see
system.mem_ctrls.wrQLenPdf::12                      0                       # What write queue length does an incoming req see
system.mem_ctrls.wrQLenPdf::13                      0                       # What write queue length does an incoming req see
system.mem_ctrls.wrQLenPdf::14                      0                       # What write queue length does an incoming req see
system.mem_ctrls.wrQLenPdf::15                    273                       # What write queue length does an incoming req see
system.mem_ctrls.wrQLenPdf::16                    307                       # What write queue length does an incoming req see
system.mem_ctrls.wrQLenPdf::17                   1974                       # What write queue length does an incoming req see
system.mem_ctrls.wrQLenPdf::18                   2946                       # What write queue length does an incoming req see
system.mem_ctrls.wrQLenPdf::19                   3764                       # What write queue length does an incoming req see
system.mem_ctrls.wrQLenPdf::20                   4582                       # What write queue length does an incoming req see
system.mem_ctrls.wrQLenPdf::21                   4622                       # What write queue length does an incoming req see
system.mem_ctrls.wrQLenPdf::22                   4652                       # What write queue length does an incoming req see
system.mem_ctrls.wrQLenPdf::23                   4677                       # What write queue length does an incoming req see
system.mem_ctrls.wrQLenPdf::24                   4719                       # What write queue length does an incoming req see
system.mem_ctrls.wrQLenPdf::25                   4736                       # What write queue length does an incoming req see
system.mem_ctrls.wrQLenPdf::26                   4778                       # What write queue length does an incoming req see
system.mem_ctrls.wrQLenPdf::27                   4754                       # What write queue length does an incoming req see
system.mem_ctrls.wrQLenPdf::28                   4793                       # What write queue length does an incoming req see
system.mem_ctrls.wrQLenPdf::29                   5634                       # What write queue length does an incoming req see
system.mem_ctrls.wrQLenPdf::30                   5418                       # What write queue length does an incoming req see
system.mem_ctrls.wrQLenPdf::31                   4843                       # What write queue length does an incoming req see
system.mem_ctrls.wrQLenPdf::32                   5452                       # What write queue length does an incoming req see
system.mem_ctrls.wrQLenPdf::33                    478                       # What write queue length does an incoming req see
system.mem_ctrls.wrQLenPdf::34                     14                       # What write queue length does an incoming req see
system.mem_ctrls.wrQLenPdf::35                      4                       # What write queue length does an incoming req see
system.mem_ctrls.wrQLenPdf::36                      1                       # What write queue length does an incoming req see
system.mem_ctrls.wrQLenPdf::37                      1                       # What write queue length does an incoming req see
system.mem_ctrls.wrQLenPdf::38                      1                       # What write queue length does an incoming req see
system.mem_ctrls.wrQLenPdf::39                      2                       # What write queue length does an incoming req see
system.mem_ctrls.wrQLenPdf::40                      0                       # What write queue length does an incoming req see
system.mem_ctrls.wrQLenPdf::41                      0                       # What write queue length does an incoming req see
system.mem_ctrls.wrQLenPdf::42                      0                       # What write queue length does an incoming req see
system.mem_ctrls.wrQLenPdf::43                      0                       # What write queue length does an incoming req see
system.mem_ctrls.wrQLenPdf::44                      0                       # What write queue length does an incoming req see
system.mem_ctrls.wrQLenPdf::45                      0                       # What write queue length does an incoming req see
system.mem_ctrls.wrQLenPdf::46                      0                       # What write queue length does an incoming req see
system.mem_ctrls.wrQLenPdf::47                      0                       # What write queue length does an incoming req see
system.mem_ctrls.wrQLenPdf::48                      0                       # What write queue length does an incoming req see
system.mem_ctrls.wrQLenPdf::49                      0                       # What write queue length does an incoming req see
system.mem_ctrls.wrQLenPdf::50                      0                       # What write queue length does an incoming req see
system.mem_ctrls.wrQLenPdf::51                      0                       # What write queue length does an incoming req see
system.mem_ctrls.wrQLenPdf::52                      0                       # What write queue length does an incoming req see
system.mem_ctrls.wrQLenPdf::53                      0                       # What write queue length does an incoming req see
system.mem_ctrls.wrQLenPdf::54                      0                       # What write queue length does an incoming req see
system.mem_ctrls.wrQLenPdf::55                      0                       # What write queue length does an incoming req see
system.mem_ctrls.wrQLenPdf::56                      0                       # What write queue length does an incoming req see
system.mem_ctrls.wrQLenPdf::57                      0                       # What write queue length does an incoming req see
system.mem_ctrls.wrQLenPdf::58                      0                       # What write queue length does an incoming req see
system.mem_ctrls.wrQLenPdf::59                      0                       # What write queue length does an incoming req see
system.mem_ctrls.wrQLenPdf::60                      0                       # What write queue length does an incoming req see
system.mem_ctrls.wrQLenPdf::61                      0                       # What write queue length does an incoming req see
system.mem_ctrls.wrQLenPdf::62                      0                       # What write queue length does an incoming req see
system.mem_ctrls.wrQLenPdf::63                      0                       # What write queue length does an incoming req see
system.mem_ctrls.bytesPerActivate::samples        37483                       # Bytes accessed per row activation
system.mem_ctrls.bytesPerActivate::mean    528.285569                       # Bytes accessed per row activation
system.mem_ctrls.bytesPerActivate::gmean   317.788707                       # Bytes accessed per row activation
system.mem_ctrls.bytesPerActivate::stdev   415.224136                       # Bytes accessed per row activation
system.mem_ctrls.bytesPerActivate::0-127         9199     24.54%     24.54% # Bytes accessed per row activation
system.mem_ctrls.bytesPerActivate::128-255         5857     15.63%     40.17% # Bytes accessed per row activation
system.mem_ctrls.bytesPerActivate::256-383         2766      7.38%     47.55% # Bytes accessed per row activation
system.mem_ctrls.bytesPerActivate::384-511         1674      4.47%     52.01% # Bytes accessed per row activation
system.mem_ctrls.bytesPerActivate::512-639         1404      3.75%     55.76% # Bytes accessed per row activation
system.mem_ctrls.bytesPerActivate::640-767         1219      3.25%     59.01% # Bytes accessed per row activation
system.mem_ctrls.bytesPerActivate::768-895         1339      3.57%     62.58% # Bytes accessed per row activation
system.mem_ctrls.bytesPerActivate::896-1023         1511      4.03%     66.61% # Bytes accessed per row activation
system.mem_ctrls.bytesPerActivate::1024-1151        12514     33.39%    100.00% # Bytes accessed per row activation
system.mem_ctrls.bytesPerActivate::total        37483                       # Bytes accessed per row activation
system.mem_ctrls.rdPerTurnAround::samples         4533                       # Reads before turning the bus around for writes
system.mem_ctrls.rdPerTurnAround::mean      52.033311                       # Reads before turning the bus around for writes
system.mem_ctrls.rdPerTurnAround::gmean     25.339460                       # Reads before turning the bus around for writes
system.mem_ctrls.rdPerTurnAround::stdev    422.975021                       # Reads before turning the bus around for writes
system.mem_ctrls.rdPerTurnAround::0-1023         4517     99.65%     99.65% # Reads before turning the bus around for writes
system.mem_ctrls.rdPerTurnAround::1024-2047            8      0.18%     99.82% # Reads before turning the bus around for writes
system.mem_ctrls.rdPerTurnAround::2048-3071            4      0.09%     99.91% # Reads before turning the bus around for writes
system.mem_ctrls.rdPerTurnAround::3072-4095            1      0.02%     99.93% # Reads before turning the bus around for writes
system.mem_ctrls.rdPerTurnAround::5120-6143            1      0.02%     99.96% # Reads before turning the bus around for writes
system.mem_ctrls.rdPerTurnAround::7168-8191            1      0.02%     99.98% # Reads before turning the bus around for writes
system.mem_ctrls.rdPerTurnAround::24576-25599            1      0.02%    100.00% # Reads before turning the bus around for writes
system.mem_ctrls.rdPerTurnAround::total          4533                       # Reads before turning the bus around for writes
system.mem_ctrls.wrPerTurnAround::samples         4533                       # Writes before turning the bus around for reads
system.mem_ctrls.wrPerTurnAround::mean      16.196338                       # Writes before turning the bus around for reads
system.mem_ctrls.wrPerTurnAround::gmean     16.181739                       # Writes before turning the bus around for reads
system.mem_ctrls.wrPerTurnAround::stdev      0.726084                       # Writes before turning the bus around for reads
system.mem_ctrls.wrPerTurnAround::16             4179     92.19%     92.19% # Writes before turning the bus around for reads
system.mem_ctrls.wrPerTurnAround::17               36      0.79%     92.98% # Writes before turning the bus around for reads
system.mem_ctrls.wrPerTurnAround::18              166      3.66%     96.65% # Writes before turning the bus around for reads
system.mem_ctrls.wrPerTurnAround::19              102      2.25%     98.90% # Writes before turning the bus around for reads
system.mem_ctrls.wrPerTurnAround::20               35      0.77%     99.67% # Writes before turning the bus around for reads
system.mem_ctrls.wrPerTurnAround::21               14      0.31%     99.98% # Writes before turning the bus around for reads
system.mem_ctrls.wrPerTurnAround::22                1      0.02%    100.00% # Writes before turning the bus around for reads
system.mem_ctrls.wrPerTurnAround::total          4533                       # Writes before turning the bus around for reads
system.mem_ctrls.totQLat                   4578255750                       # Total ticks spent queuing
system.mem_ctrls.totMemAccLat              9003180750                       # Total ticks spent from burst creation until serviced by the DRAM
system.mem_ctrls.totBusLat                 1179980000                       # Total ticks spent in databus transfers
system.mem_ctrls.avgQLat                     19399.72                       # Average queueing delay per DRAM burst
system.mem_ctrls.avgBusLat                    5000.00                       # Average bus latency per DRAM burst
system.mem_ctrls.avgMemAccLat                38149.72                       # Average memory access latency per DRAM burst
system.mem_ctrls.avgRdBW                       989.28                       # Average DRAM read bandwidth in MiByte/s
system.mem_ctrls.avgWrBW                       307.76                       # Average achieved write bandwidth in MiByte/s
system.mem_ctrls.avgRdBWSys                    989.50                       # Average system read bandwidth in MiByte/s
system.mem_ctrls.avgWrBWSys                    307.79                       # Average system write bandwidth in MiByte/s
system.mem_ctrls.peakBW                      12800.00                       # Theoretical peak bandwidth in MiByte/s
system.mem_ctrls.busUtil                        10.13                       # Data bus utilization in percentage
system.mem_ctrls.busUtilRead                     7.73                       # Data bus utilization in percentage for reads
system.mem_ctrls.busUtilWrite                    2.40                       # Data bus utilization in percentage for writes
system.mem_ctrls.avgRdQLen                       1.58                       # Average read queue length when enqueuing
system.mem_ctrls.avgWrQLen                      25.33                       # Average write queue length when enqueuing
system.mem_ctrls.readRowHits                   209997                       # Number of row buffer hits during reads
system.mem_ctrls.writeRowHits                   61934                       # Number of row buffer hits during writes
system.mem_ctrls.readRowHitRate                 88.98                       # Row buffer hit rate for reads
system.mem_ctrls.writeRowHitRate                84.35                       # Row buffer hit rate for writes
system.mem_ctrls.avgGap                      49334.09                       # Average gap between requests
system.mem_ctrls.pageHitRate                    87.88                       # Row buffer hit rate, read and write combined
system.mem_ctrls_0.actEnergy                131497380                       # Energy for activate commands per rank (pJ)
system.mem_ctrls_0.preEnergy                 69900105                       # Energy for precharge commands per rank (pJ)
system.mem_ctrls_0.readEnergy               825933780                       # Energy for read commands per rank (pJ)
system.mem_ctrls_0.writeEnergy              187977420                       # Energy for write commands per rank (pJ)
system.mem_ctrls_0.refreshEnergy         1008009600.000000                       # Energy for refresh commands per rank (pJ)
system.mem_ctrls_0.actBackEnergy           1707506820                       # Energy for active background per rank (pJ)
system.mem_ctrls_0.preBackEnergy             64794720                       # Energy for precharge background per rank (pJ)
system.mem_ctrls_0.actPowerDownEnergy      2423043780                       # Energy for active power-down per rank (pJ)
system.mem_ctrls_0.prePowerDownEnergy       807069120                       # Energy for precharge power-down per rank (pJ)
system.mem_ctrls_0.selfRefreshEnergy       1055169360                       # Energy for self refresh per rank (pJ)
system.mem_ctrls_0.totalEnergy             8281112295                       # Total energy per rank (pJ)
system.mem_ctrls_0.averagePower            542.406867                       # Core power per rank (mW)
system.mem_ctrls_0.totalIdleTime          11351041750                       # Total Idle time Per DRAM Rank
system.mem_ctrls_0.memoryStateTime::IDLE     84222000                       # Time in different power states
system.mem_ctrls_0.memoryStateTime::REF     427690000                       # Time in different power states
system.mem_ctrls_0.memoryStateTime::SREF   3938170500                       # Time in different power states
system.mem_ctrls_0.memoryStateTime::PRE_PDN   2101764750                       # Time in different power states
system.mem_ctrls_0.memoryStateTime::ACT    3401722125                       # Time in different power states
system.mem_ctrls_0.memoryStateTime::ACT_PDN   5313774750                       # Time in different power states
system.mem_ctrls_1.actEnergy                136131240                       # Energy for activate commands per rank (pJ)
system.mem_ctrls_1.preEnergy                 72347880                       # Energy for precharge commands per rank (pJ)
system.mem_ctrls_1.readEnergy               859099080                       # Energy for read commands per rank (pJ)
system.mem_ctrls_1.writeEnergy              195264540                       # Energy for write commands per rank (pJ)
system.mem_ctrls_1.refreshEnergy         979736160.000000                       # Energy for refresh commands per rank (pJ)
system.mem_ctrls_1.actBackEnergy           1742077890                       # Energy for active background per rank (pJ)
system.mem_ctrls_1.preBackEnergy             61611840                       # Energy for precharge background per rank (pJ)
system.mem_ctrls_1.actPowerDownEnergy      2404589460                       # Energy for active power-down per rank (pJ)
system.mem_ctrls_1.prePowerDownEnergy       734987040                       # Energy for precharge power-down per rank (pJ)
system.mem_ctrls_1.selfRefreshEnergy       1078264740                       # Energy for self refresh per rank (pJ)
system.mem_ctrls_1.totalEnergy             8264485170                       # Total energy per rank (pJ)
system.mem_ctrls_1.averagePower            541.317802                       # Core power per rank (mW)
system.mem_ctrls_1.totalIdleTime          11285778625                       # Total Idle time Per DRAM Rank
system.mem_ctrls_1.memoryStateTime::IDLE     75301500                       # Time in different power states
system.mem_ctrls_1.memoryStateTime::REF     415580000                       # Time in different power states
system.mem_ctrls_1.memoryStateTime::SREF   4098470625                       # Time in different power states
system.mem_ctrls_1.memoryStateTime::PRE_PDN   1914022500                       # Time in different power states
system.mem_ctrls_1.memoryStateTime::ACT    3490623000                       # Time in different power states
system.mem_ctrls_1.memoryStateTime::ACT_PDN   5273346500                       # Time in different power states
system.pwrStateResidencyTicks::UNDEFINED  15267344125                       # Cumulative time (in ticks) in various power states
system.cpu0.branchPred.lookups                3270657                       # Number of BP lookups
system.cpu0.branchPred.condPredicted          3270657                       # Number of conditional branches predicted
system.cpu0.branchPred.condIncorrect            19866                       # Number of conditional branches incorrect
system.cpu0.branchPred.BTBLookups             3037460                       # Number of BTB lookups
system.cpu0.branchPred.BTBHits                      0                       # Number of BTB hits
system.cpu0.branchPred.BTBCorrect                   0                       # Number of correct BTB predictions (this stat may not work properly.
system.cpu0.branchPred.BTBHitPct             0.000000                       # BTB Hit Percentage
system.cpu0.branchPred.usedRAS                 131516                       # Number of times the RAS was used to get a target.
system.cpu0.branchPred.RASInCorrect               139                       # Number of incorrect RAS predictions.
system.cpu0.branchPred.indirectLookups        3037460                       # Number of indirect predictor lookups.
system.cpu0.branchPred.indirectHits           1817365                       # Number of indirect target hits.
system.cpu0.branchPred.indirectMisses         1220095                       # Number of indirect misses.
system.cpu0.branchPredindirectMispredicted         2163                       # Number of mispredicted indirect branches.
system.cpu_voltage_domain.voltage                   1                       # Voltage in Volts
system.cpu_clk_domain.clock                       500                       # Clock period in ticks
system.cpu0.dtb.walker.pwrStateResidencyTicks::UNDEFINED  15267344125                       # Cumulative time (in ticks) in various power states
system.cpu0.dtb.rdAccesses                    6302228                       # TLB accesses on read requests
system.cpu0.dtb.wrAccesses                    2442627                       # TLB accesses on write requests
system.cpu0.dtb.rdMisses                        36021                       # TLB misses on read requests
system.cpu0.dtb.wrMisses                         8968                       # TLB misses on write requests
system.cpu0.apic_clk_domain.clock                8000                       # Clock period in ticks
system.cpu0.interrupts.pwrStateResidencyTicks::UNDEFINED  15267344125                       # Cumulative time (in ticks) in various power states
system.cpu0.itb.walker.pwrStateResidencyTicks::UNDEFINED  15267344125                       # Cumulative time (in ticks) in various power states
system.cpu0.itb.rdAccesses                          0                       # TLB accesses on read requests
system.cpu0.itb.wrAccesses                    2343822                       # TLB accesses on write requests
system.cpu0.itb.rdMisses                            0                       # TLB misses on read requests
system.cpu0.itb.wrMisses                           22                       # TLB misses on write requests
system.cpu0.workload.numSyscalls                    8                       # Number of system calls
system.cpu0.pwrStateResidencyTicks::ON    15267344125                       # Cumulative time (in ticks) in various power states
system.cpu0.numCycles                        30534688                       # number of cpu cycles simulated
system.cpu0.numWorkItemsStarted                     0                       # number of work items this cpu started
system.cpu0.numWorkItemsCompleted                   0                       # number of work items this cpu completed
system.cpu0.fetch.icacheStallCycles           2352138                       # Number of cycles fetch is stalled on an Icache miss
system.cpu0.fetch.Insts                      16619910                       # Number of instructions fetch has processed
system.cpu0.fetch.Branches                    3270657                       # Number of branches that fetch encountered
system.cpu0.fetch.predictedBranches           1948881                       # Number of branches that fetch has predicted taken
system.cpu0.fetch.Cycles                     28150244                       # Number of cycles fetch has run and was not squashing or blocked
system.cpu0.fetch.SquashCycles                  39834                       # Number of cycles fetch has spent squashing
system.cpu0.fetch.MiscStallCycles                  16                       # Number of cycles fetch has spent waiting on interrupts, or bad addresses, or out of MSHRs
system.cpu0.fetch.PendingTrapStallCycles           99                       # Number of stall cycles due to pending traps
system.cpu0.fetch.PendingQuiesceStallCycles           38                       # Number of stall cycles due to pending quiesce instructions
system.cpu0.fetch.CacheLines                  2343805                       # Number of cache lines fetched
system.cpu0.fetch.IcacheSquashes                 2951                       # Number of outstanding Icache misses that were squashed
system.cpu0.fetch.rateDist::samples          30522452                       # Number of instructions fetched each cycle (Total)
system.cpu0.fetch.rateDist::mean             1.005827                       # Number of instructions fetched each cycle (Total)
system.cpu0.fetch.rateDist::stdev            2.425024                       # Number of instructions fetched each cycle (Total)
system.cpu0.fetch.rateDist::underflows              0      0.00%      0.00% # Number of instructions fetched each cycle (Total)
system.cpu0.fetch.rateDist::0                25231029     82.66%     82.66% # Number of instructions fetched each cycle (Total)
system.cpu0.fetch.rateDist::1                  517601      1.70%     84.36% # Number of instructions fetched each cycle (Total)
system.cpu0.fetch.rateDist::2                  190021      0.62%     84.98% # Number of instructions fetched each cycle (Total)
system.cpu0.fetch.rateDist::3                  548836      1.80%     86.78% # Number of instructions fetched each cycle (Total)
system.cpu0.fetch.rateDist::4                  271298      0.89%     87.67% # Number of instructions fetched each cycle (Total)
system.cpu0.fetch.rateDist::5                  599199      1.96%     89.63% # Number of instructions fetched each cycle (Total)
system.cpu0.fetch.rateDist::6                  460802      1.51%     91.14% # Number of instructions fetched each cycle (Total)
system.cpu0.fetch.rateDist::7                  319178      1.05%     92.19% # Number of instructions fetched each cycle (Total)
system.cpu0.fetch.rateDist::8                 2384488      7.81%    100.00% # Number of instructions fetched each cycle (Total)
system.cpu0.fetch.rateDist::overflows               0      0.00%    100.00% # Number of instructions fetched each cycle (Total)
system.cpu0.fetch.rateDist::min_value               0                       # Number of instructions fetched each cycle (Total)
system.cpu0.fetch.rateDist::max_value               8                       # Number of instructions fetched each cycle (Total)
system.cpu0.fetch.rateDist::total            30522452                       # Number of instructions fetched each cycle (Total)
system.cpu0.fetch.branchRate                 0.107113                       # Number of branch fetches per cycle
system.cpu0.fetch.rate                       0.544296                       # Number of inst fetches per cycle
system.cpu0.decode.IdleCycles                 1557294                       # Number of cycles decode is idle
system.cpu0.decode.BlockedCycles             24399556                       # Number of cycles decode is blocked
system.cpu0.decode.RunCycles                  3811355                       # Number of cycles decode is running
system.cpu0.decode.UnblockCycles               734330                       # Number of cycles decode is unblocking
system.cpu0.decode.SquashCycles                 19917                       # Number of cycles decode is squashing
system.cpu0.decode.DecodedInsts              30416974                       # Number of instructions handled by decode
system.cpu0.rename.SquashCycles                 19917                       # Number of cycles rename is squashing
system.cpu0.rename.IdleCycles                 1883340                       # Number of cycles rename is idle
system.cpu0.rename.BlockCycles               15105405                       # Number of cycles rename is blocking
system.cpu0.rename.serializeStallCycles          2554                       # count of cycles rename stalled for serializing inst
system.cpu0.rename.RunCycles                  4149590                       # Number of cycles rename is running
system.cpu0.rename.UnblockCycles              9361646                       # Number of cycles rename is unblocking
system.cpu0.rename.RenamedInsts              30338240                       # Number of instructions processed by rename
system.cpu0.rename.ROBFullEvents               212311                       # Number of times rename has blocked due to ROB full
system.cpu0.rename.IQFullEvents                819735                       # Number of times rename has blocked due to IQ full
system.cpu0.rename.LQFullEvents               5810645                       # Number of times rename has blocked due to LQ full
system.cpu0.rename.SQFullEvents               2274595                       # Number of times rename has blocked due to SQ full
system.cpu0.rename.RenamedOperands           36173150                       # Number of destination operands rename has renamed
system.cpu0.rename.RenameLookups             75706749                       # Number of register rename lookups that rename has made
system.cpu0.rename.int_rename_lookups        44708371                       # Number of integer rename lookups
system.cpu0.rename.fp_rename_lookups           211644                       # Number of floating rename lookups
system.cpu0.rename.CommittedMaps             33805552                       # Number of HB maps that are committed
system.cpu0.rename.UndoneMaps                 2367654                       # Number of HB maps that are undone due to squashing
system.cpu0.rename.serializingInsts                92                       # count of serializing insts renamed
system.cpu0.rename.tempSerializingInsts            92                       # count of temporary serializing insts renamed
system.cpu0.rename.skidInsts                  4280014                       # count of insts added to the skid buffer
system.cpu0.memDep0.insertedLoads             5203836                       # Number of loads inserted to the mem dependence unit.
system.cpu0.memDep0.insertedStores            2454154                       # Number of stores inserted to the mem dependence unit.
system.cpu0.memDep0.conflictingLoads           153423                       # Number of conflicting loads.
system.cpu0.memDep0.conflictingStores           30477                       # Number of conflicting stores.
system.cpu0.iq.iqInstsAdded                  30245187                       # Number of instructions added to the IQ (excludes non-spec)
system.cpu0.iq.iqNonSpecInstsAdded                591                       # Number of non-speculative instructions added to the IQ
system.cpu0.iq.iqInstsIssued                 31064017                       # Number of instructions issued
system.cpu0.iq.iqSquashedInstsIssued            11752                       # Number of squashed instructions issued
system.cpu0.iq.iqSquashedInstsExamined        1620068                       # Number of squashed instructions iterated over during squash; mainly for profiling
system.cpu0.iq.iqSquashedOperandsExamined      1742091                       # Number of squashed operands that are examined and possibly removed from graph
system.cpu0.iq.iqSquashedNonSpecRemoved           535                       # Number of squashed non-spec instructions that were removed
system.cpu0.iq.issued_per_cycle::samples     30522452                       # Number of insts issued each cycle
system.cpu0.iq.issued_per_cycle::mean        1.017743                       # Number of insts issued each cycle
system.cpu0.iq.issued_per_cycle::stdev       1.986561                       # Number of insts issued each cycle
system.cpu0.iq.issued_per_cycle::underflows            0      0.00%      0.00% # Number of insts issued each cycle
system.cpu0.iq.issued_per_cycle::0           22174226     72.65%     72.65% # Number of insts issued each cycle
system.cpu0.iq.issued_per_cycle::1            1551275      5.08%     77.73% # Number of insts issued each cycle
system.cpu0.iq.issued_per_cycle::2            1335213      4.37%     82.11% # Number of insts issued each cycle
system.cpu0.iq.issued_per_cycle::3            1242825      4.07%     86.18% # Number of insts issued each cycle
system.cpu0.iq.issued_per_cycle::4            1246203      4.08%     90.26% # Number of insts issued each cycle
system.cpu0.iq.issued_per_cycle::5            1163972      3.81%     94.07% # Number of insts issued each cycle
system.cpu0.iq.issued_per_cycle::6             802740      2.63%     96.70% # Number of insts issued each cycle
system.cpu0.iq.issued_per_cycle::7             555255      1.82%     98.52% # Number of insts issued each cycle
system.cpu0.iq.issued_per_cycle::8             450743      1.48%    100.00% # Number of insts issued each cycle
system.cpu0.iq.issued_per_cycle::overflows            0      0.00%    100.00% # Number of insts issued each cycle
system.cpu0.iq.issued_per_cycle::min_value            0                       # Number of insts issued each cycle
system.cpu0.iq.issued_per_cycle::max_value            8                       # Number of insts issued each cycle
system.cpu0.iq.issued_per_cycle::total       30522452                       # Number of insts issued each cycle
system.cpu0.iq.fu_full::No_OpClass                  0      0.00%      0.00% # attempts to use FU when none available
system.cpu0.iq.fu_full::IntAlu                 283592     38.16%     38.16% # attempts to use FU when none available
system.cpu0.iq.fu_full::IntMult                     0      0.00%     38.16% # attempts to use FU when none available
system.cpu0.iq.fu_full::IntDiv                      0      0.00%     38.16% # attempts to use FU when none available
system.cpu0.iq.fu_full::FloatAdd                   57      0.01%     38.17% # attempts to use FU when none available
system.cpu0.iq.fu_full::FloatCmp                    0      0.00%     38.17% # attempts to use FU when none available
system.cpu0.iq.fu_full::FloatCvt                    0      0.00%     38.17% # attempts to use FU when none available
system.cpu0.iq.fu_full::FloatMult                   0      0.00%     38.17% # attempts to use FU when none available
system.cpu0.iq.fu_full::FloatMultAcc                0      0.00%     38.17% # attempts to use FU when none available
system.cpu0.iq.fu_full::FloatDiv                    0      0.00%     38.17% # attempts to use FU when none available
system.cpu0.iq.fu_full::FloatMisc                   0      0.00%     38.17% # attempts to use FU when none available
system.cpu0.iq.fu_full::FloatSqrt                   0      0.00%     38.17% # attempts to use FU when none available
system.cpu0.iq.fu_full::SimdAdd                     0      0.00%     38.17% # attempts to use FU when none available
system.cpu0.iq.fu_full::SimdAddAcc                  0      0.00%     38.17% # attempts to use FU when none available
system.cpu0.iq.fu_full::SimdAlu                     0      0.00%     38.17% # attempts to use FU when none available
system.cpu0.iq.fu_full::SimdCmp                     0      0.00%     38.17% # attempts to use FU when none available
system.cpu0.iq.fu_full::SimdCvt                     0      0.00%     38.17% # attempts to use FU when none available
system.cpu0.iq.fu_full::SimdMisc                    0      0.00%     38.17% # attempts to use FU when none available
system.cpu0.iq.fu_full::SimdMult                    0      0.00%     38.17% # attempts to use FU when none available
system.cpu0.iq.fu_full::SimdMultAcc                 0      0.00%     38.17% # attempts to use FU when none available
system.cpu0.iq.fu_full::SimdShift                   0      0.00%     38.17% # attempts to use FU when none available
system.cpu0.iq.fu_full::SimdShiftAcc                0      0.00%     38.17% # attempts to use FU when none available
system.cpu0.iq.fu_full::SimdSqrt                    0      0.00%     38.17% # attempts to use FU when none available
system.cpu0.iq.fu_full::SimdFloatAdd                0      0.00%     38.17% # attempts to use FU when none available
system.cpu0.iq.fu_full::SimdFloatAlu                0      0.00%     38.17% # attempts to use FU when none available
system.cpu0.iq.fu_full::SimdFloatCmp                0      0.00%     38.17% # attempts to use FU when none available
system.cpu0.iq.fu_full::SimdFloatCvt                0      0.00%     38.17% # attempts to use FU when none available
system.cpu0.iq.fu_full::SimdFloatDiv                0      0.00%     38.17% # attempts to use FU when none available
system.cpu0.iq.fu_full::SimdFloatMisc               0      0.00%     38.17% # attempts to use FU when none available
system.cpu0.iq.fu_full::SimdFloatMult               0      0.00%     38.17% # attempts to use FU when none available
system.cpu0.iq.fu_full::SimdFloatMultAcc            0      0.00%     38.17% # attempts to use FU when none available
system.cpu0.iq.fu_full::SimdFloatSqrt               0      0.00%     38.17% # attempts to use FU when none available
system.cpu0.iq.fu_full::MemRead                388981     52.34%     90.50% # attempts to use FU when none available
system.cpu0.iq.fu_full::MemWrite                70522      9.49%     99.99% # attempts to use FU when none available
system.cpu0.iq.fu_full::FloatMemRead                4      0.00%     99.99% # attempts to use FU when none available
system.cpu0.iq.fu_full::FloatMemWrite              42      0.01%    100.00% # attempts to use FU when none available
system.cpu0.iq.fu_full::IprAccess                   0      0.00%    100.00% # attempts to use FU when none available
system.cpu0.iq.fu_full::InstPrefetch                0      0.00%    100.00% # attempts to use FU when none available
system.cpu0.iq.FU_type_0::No_OpClass            72936      0.23%      0.23% # Type of FU issued
system.cpu0.iq.FU_type_0::IntAlu             22223702     71.54%     71.78% # Type of FU issued
system.cpu0.iq.FU_type_0::IntMult               11081      0.04%     71.81% # Type of FU issued
system.cpu0.iq.FU_type_0::IntDiv                    7      0.00%     71.81% # Type of FU issued
system.cpu0.iq.FU_type_0::FloatAdd               1961      0.01%     71.82% # Type of FU issued
system.cpu0.iq.FU_type_0::FloatCmp                  0      0.00%     71.82% # Type of FU issued
system.cpu0.iq.FU_type_0::FloatCvt                  0      0.00%     71.82% # Type of FU issued
system.cpu0.iq.FU_type_0::FloatMult                 0      0.00%     71.82% # Type of FU issued
system.cpu0.iq.FU_type_0::FloatMultAcc              0      0.00%     71.82% # Type of FU issued
system.cpu0.iq.FU_type_0::FloatDiv                  0      0.00%     71.82% # Type of FU issued
system.cpu0.iq.FU_type_0::FloatMisc                 0      0.00%     71.82% # Type of FU issued
system.cpu0.iq.FU_type_0::FloatSqrt                 0      0.00%     71.82% # Type of FU issued
system.cpu0.iq.FU_type_0::SimdAdd                   0      0.00%     71.82% # Type of FU issued
system.cpu0.iq.FU_type_0::SimdAddAcc                0      0.00%     71.82% # Type of FU issued
system.cpu0.iq.FU_type_0::SimdAlu                   0      0.00%     71.82% # Type of FU issued
system.cpu0.iq.FU_type_0::SimdCmp                   0      0.00%     71.82% # Type of FU issued
system.cpu0.iq.FU_type_0::SimdCvt                   0      0.00%     71.82% # Type of FU issued
system.cpu0.iq.FU_type_0::SimdMisc                  0      0.00%     71.82% # Type of FU issued
system.cpu0.iq.FU_type_0::SimdMult                  0      0.00%     71.82% # Type of FU issued
system.cpu0.iq.FU_type_0::SimdMultAcc               0      0.00%     71.82% # Type of FU issued
system.cpu0.iq.FU_type_0::SimdShift                 0      0.00%     71.82% # Type of FU issued
system.cpu0.iq.FU_type_0::SimdShiftAcc              0      0.00%     71.82% # Type of FU issued
system.cpu0.iq.FU_type_0::SimdSqrt                  0      0.00%     71.82% # Type of FU issued
system.cpu0.iq.FU_type_0::SimdFloatAdd              0      0.00%     71.82% # Type of FU issued
system.cpu0.iq.FU_type_0::SimdFloatAlu              0      0.00%     71.82% # Type of FU issued
system.cpu0.iq.FU_type_0::SimdFloatCmp              0      0.00%     71.82% # Type of FU issued
system.cpu0.iq.FU_type_0::SimdFloatCvt              0      0.00%     71.82% # Type of FU issued
system.cpu0.iq.FU_type_0::SimdFloatDiv              0      0.00%     71.82% # Type of FU issued
system.cpu0.iq.FU_type_0::SimdFloatMisc             0      0.00%     71.82% # Type of FU issued
system.cpu0.iq.FU_type_0::SimdFloatMult             0      0.00%     71.82% # Type of FU issued
system.cpu0.iq.FU_type_0::SimdFloatMultAcc            0      0.00%     71.82% # Type of FU issued
system.cpu0.iq.FU_type_0::SimdFloatSqrt             0      0.00%     71.82% # Type of FU issued
system.cpu0.iq.FU_type_0::MemRead             6308915     20.31%     92.13% # Type of FU issued
system.cpu0.iq.FU_type_0::MemWrite            2238978      7.21%     99.34% # Type of FU issued
system.cpu0.iq.FU_type_0::FloatMemRead            618      0.00%     99.34% # Type of FU issued
system.cpu0.iq.FU_type_0::FloatMemWrite        205819      0.66%    100.00% # Type of FU issued
system.cpu0.iq.FU_type_0::IprAccess                 0      0.00%    100.00% # Type of FU issued
system.cpu0.iq.FU_type_0::InstPrefetch              0      0.00%    100.00% # Type of FU issued
system.cpu0.iq.FU_type_0::total              31064017                       # Type of FU issued
system.cpu0.iq.rate                          1.017335                       # Inst issue rate
system.cpu0.iq.fu_busy_cnt                     743198                       # FU busy when requested
system.cpu0.iq.fu_busy_rate                  0.023925                       # FU busy rate (busy events/executed inst)
system.cpu0.iq.int_inst_queue_reads          92988449                       # Number of integer instruction queue reads
system.cpu0.iq.int_inst_queue_writes         31655386                       # Number of integer instruction queue writes
system.cpu0.iq.int_inst_queue_wakeup_accesses     29587279                       # Number of integer instruction queue wakeup accesses
system.cpu0.iq.fp_inst_queue_reads             416986                       # Number of floating instruction queue reads
system.cpu0.iq.fp_inst_queue_writes            210502                       # Number of floating instruction queue writes
system.cpu0.iq.fp_inst_queue_wakeup_accesses       208247                       # Number of floating instruction queue wakeup accesses
system.cpu0.iq.vec_inst_queue_reads                 0                       # Number of vector instruction queue reads
system.cpu0.iq.vec_inst_queue_writes                0                       # Number of vector instruction queue writes
system.cpu0.iq.vec_inst_queue_wakeup_accesses            0                       # Number of vector instruction queue wakeup accesses
system.cpu0.iq.int_alu_accesses              31525751                       # Number of integer alu accesses
system.cpu0.iq.fp_alu_accesses                 208528                       # Number of floating point alu accesses
system.cpu0.iq.vec_alu_accesses                     0                       # Number of vector alu accesses
system.cpu0.iew.lsq.thread0.forwLoads          525925                       # Number of loads that had data forwarded from stores
system.cpu0.iew.lsq.thread0.invAddrLoads            0                       # Number of loads ignored due to an invalid address
system.cpu0.iew.lsq.thread0.squashedLoads       242390                       # Number of loads squashed
system.cpu0.iew.lsq.thread0.ignoredResponses           28                       # Number of memory responses ignored because the instruction is squashed
system.cpu0.iew.lsq.thread0.memOrderViolation           42                       # Number of memory ordering violations
system.cpu0.iew.lsq.thread0.squashedStores        35271                       # Number of stores squashed
system.cpu0.iew.lsq.thread0.invAddrSwpfs            0                       # Number of software prefetches ignored due to an invalid address
system.cpu0.iew.lsq.thread0.blockedLoads            0                       # Number of blocked loads due to partial load-store forwarding
system.cpu0.iew.lsq.thread0.rescheduledLoads           52                       # Number of loads that were rescheduled
system.cpu0.iew.lsq.thread0.cacheBlocked      1208296                       # Number of times an access to memory failed due to the cache being blocked
system.cpu0.iew.iewIdleCycles                       0                       # Number of cycles IEW is idle
system.cpu0.iew.iewSquashCycles                 19917                       # Number of cycles IEW is squashing
system.cpu0.iew.iewBlockCycles                8291891                       # Number of cycles IEW is blocking
system.cpu0.iew.iewUnblockCycles              2531333                       # Number of cycles IEW is unblocking
system.cpu0.iew.iewDispatchedInsts           30245778                       # Number of instructions dispatched to IQ
system.cpu0.iew.iewDispSquashedInsts               95                       # Number of squashed instructions skipped by dispatch
system.cpu0.iew.iewDispLoadInsts              5203836                       # Number of dispatched load instructions
system.cpu0.iew.iewDispStoreInsts             2454154                       # Number of dispatched store instructions
system.cpu0.iew.iewDispNonSpecInsts               256                       # Number of dispatched non-speculative instructions
system.cpu0.iew.iewIQFullEvents                 40949                       # Number of times the IQ has become full, causing a stall
system.cpu0.iew.iewLSQFullEvents              2448855                       # Number of times the LSQ has become full, causing a stall
system.cpu0.iew.memOrderViolationEvents            42                       # Number of memory order violations
system.cpu0.iew.predictedTakenIncorrect         17266                       # Number of branches that were predicted taken incorrectly
system.cpu0.iew.predictedNotTakenIncorrect         5818                       # Number of branches that were predicted not taken incorrectly
system.cpu0.iew.branchMispredicts               23084                       # Number of branch mispredicts detected at execute
system.cpu0.iew.iewExecutedInsts             31020339                       # Number of executed instructions
system.cpu0.iew.iewExecLoadInsts              6300384                       # Number of load instructions executed
system.cpu0.iew.iewExecSquashedInsts            43677                       # Number of squashed instructions skipped in execute
system.cpu0.iew.exec_swp                            0                       # number of swp insts executed
system.cpu0.iew.exec_nop                            0                       # number of nop insts executed
system.cpu0.iew.exec_refs                     8742148                       # number of memory reference insts executed
system.cpu0.iew.exec_branches                 3101182                       # Number of branches executed
system.cpu0.iew.exec_stores                   2441764                       # Number of stores executed
system.cpu0.iew.exec_rate                    1.015905                       # Inst execution rate
system.cpu0.iew.wb_sent                      29803329                       # cumulative count of insts sent to commit
system.cpu0.iew.wb_count                     29795526                       # cumulative count of insts written-back
system.cpu0.iew.wb_producers                 22203050                       # num instructions producing a value
system.cpu0.iew.wb_consumers                 33996126                       # num instructions consuming a value
system.cpu0.iew.wb_rate                      0.975793                       # insts written-back per cycle
system.cpu0.iew.wb_fanout                    0.653105                       # average fanout of values written-back
system.cpu0.commit.commitSquashedInsts        1620085                       # The number of squashed insts skipped by commit
system.cpu0.commit.commitNonSpecStalls             56                       # The number of times commit has been forced to stall to communicate backwards
system.cpu0.commit.branchMispredicts            19881                       # The number of times a branch was mispredicted
system.cpu0.commit.committed_per_cycle::samples     30304676                       # Number of insts commited each cycle
system.cpu0.commit.committed_per_cycle::mean     0.944598                       # Number of insts commited each cycle
system.cpu0.commit.committed_per_cycle::stdev     2.331660                       # Number of insts commited each cycle
system.cpu0.commit.committed_per_cycle::underflows            0      0.00%      0.00% # Number of insts commited each cycle
system.cpu0.commit.committed_per_cycle::0     24631730     81.28%     81.28% # Number of insts commited each cycle
system.cpu0.commit.committed_per_cycle::1      1029954      3.40%     84.68% # Number of insts commited each cycle
system.cpu0.commit.committed_per_cycle::2       469604      1.55%     86.23% # Number of insts commited each cycle
system.cpu0.commit.committed_per_cycle::3       905874      2.99%     89.22% # Number of insts commited each cycle
system.cpu0.commit.committed_per_cycle::4       251533      0.83%     90.05% # Number of insts commited each cycle
system.cpu0.commit.committed_per_cycle::5       176424      0.58%     90.63% # Number of insts commited each cycle
system.cpu0.commit.committed_per_cycle::6       276760      0.91%     91.54% # Number of insts commited each cycle
system.cpu0.commit.committed_per_cycle::7       112227      0.37%     91.91% # Number of insts commited each cycle
system.cpu0.commit.committed_per_cycle::8      2450570      8.09%    100.00% # Number of insts commited each cycle
system.cpu0.commit.committed_per_cycle::overflows            0      0.00%    100.00% # Number of insts commited each cycle
system.cpu0.commit.committed_per_cycle::min_value            0                       # Number of insts commited each cycle
system.cpu0.commit.committed_per_cycle::max_value            8                       # Number of insts commited each cycle
system.cpu0.commit.committed_per_cycle::total     30304676                       # Number of insts commited each cycle
system.cpu0.commit.committedInsts            15592994                       # Number of instructions committed
system.cpu0.commit.committedOps              28625745                       # Number of ops (including micro ops) committed
system.cpu0.commit.swp_count                        0                       # Number of s/w prefetches committed
system.cpu0.commit.refs                       7380339                       # Number of memory references committed
system.cpu0.commit.loads                      4961456                       # Number of loads committed
system.cpu0.commit.membars                         32                       # Number of memory barriers committed
system.cpu0.commit.branches                   3031442                       # Number of branches committed
system.cpu0.commit.vec_insts                        0                       # Number of committed Vector instructions.
system.cpu0.commit.fp_insts                    207680                       # Number of committed floating point instructions.
system.cpu0.commit.int_insts                 28554843                       # Number of committed integer instructions.
system.cpu0.commit.function_calls              130143                       # Number of function calls committed.
system.cpu0.commit.op_class_0::No_OpClass        69558      0.24%      0.24% # Class of committed instruction
system.cpu0.commit.op_class_0::IntAlu        21163431     73.93%     74.17% # Class of committed instruction
system.cpu0.commit.op_class_0::IntMult          10859      0.04%     74.21% # Class of committed instruction
system.cpu0.commit.op_class_0::IntDiv               0      0.00%     74.21% # Class of committed instruction
system.cpu0.commit.op_class_0::FloatAdd          1558      0.01%     74.22% # Class of committed instruction
system.cpu0.commit.op_class_0::FloatCmp             0      0.00%     74.22% # Class of committed instruction
system.cpu0.commit.op_class_0::FloatCvt             0      0.00%     74.22% # Class of committed instruction
system.cpu0.commit.op_class_0::FloatMult            0      0.00%     74.22% # Class of committed instruction
system.cpu0.commit.op_class_0::FloatMultAcc            0      0.00%     74.22% # Class of committed instruction
system.cpu0.commit.op_class_0::FloatDiv             0      0.00%     74.22% # Class of committed instruction
system.cpu0.commit.op_class_0::FloatMisc            0      0.00%     74.22% # Class of committed instruction
system.cpu0.commit.op_class_0::FloatSqrt            0      0.00%     74.22% # Class of committed instruction
system.cpu0.commit.op_class_0::SimdAdd              0      0.00%     74.22% # Class of committed instruction
system.cpu0.commit.op_class_0::SimdAddAcc            0      0.00%     74.22% # Class of committed instruction
system.cpu0.commit.op_class_0::SimdAlu              0      0.00%     74.22% # Class of committed instruction
system.cpu0.commit.op_class_0::SimdCmp              0      0.00%     74.22% # Class of committed instruction
system.cpu0.commit.op_class_0::SimdCvt              0      0.00%     74.22% # Class of committed instruction
system.cpu0.commit.op_class_0::SimdMisc             0      0.00%     74.22% # Class of committed instruction
system.cpu0.commit.op_class_0::SimdMult             0      0.00%     74.22% # Class of committed instruction
system.cpu0.commit.op_class_0::SimdMultAcc            0      0.00%     74.22% # Class of committed instruction
system.cpu0.commit.op_class_0::SimdShift            0      0.00%     74.22% # Class of committed instruction
system.cpu0.commit.op_class_0::SimdShiftAcc            0      0.00%     74.22% # Class of committed instruction
system.cpu0.commit.op_class_0::SimdSqrt             0      0.00%     74.22% # Class of committed instruction
system.cpu0.commit.op_class_0::SimdFloatAdd            0      0.00%     74.22% # Class of committed instruction
system.cpu0.commit.op_class_0::SimdFloatAlu            0      0.00%     74.22% # Class of committed instruction
system.cpu0.commit.op_class_0::SimdFloatCmp            0      0.00%     74.22% # Class of committed instruction
system.cpu0.commit.op_class_0::SimdFloatCvt            0      0.00%     74.22% # Class of committed instruction
system.cpu0.commit.op_class_0::SimdFloatDiv            0      0.00%     74.22% # Class of committed instruction
system.cpu0.commit.op_class_0::SimdFloatMisc            0      0.00%     74.22% # Class of committed instruction
system.cpu0.commit.op_class_0::SimdFloatMult            0      0.00%     74.22% # Class of committed instruction
system.cpu0.commit.op_class_0::SimdFloatMultAcc            0      0.00%     74.22% # Class of committed instruction
system.cpu0.commit.op_class_0::SimdFloatSqrt            0      0.00%     74.22% # Class of committed instruction
system.cpu0.commit.op_class_0::MemRead        4961096     17.33%     91.55% # Class of committed instruction
system.cpu0.commit.op_class_0::MemWrite       2213131      7.73%     99.28% # Class of committed instruction
system.cpu0.commit.op_class_0::FloatMemRead          360      0.00%     99.28% # Class of committed instruction
system.cpu0.commit.op_class_0::FloatMemWrite       205752      0.72%    100.00% # Class of committed instruction
system.cpu0.commit.op_class_0::IprAccess            0      0.00%    100.00% # Class of committed instruction
system.cpu0.commit.op_class_0::InstPrefetch            0      0.00%    100.00% # Class of committed instruction
system.cpu0.commit.op_class_0::total         28625745                       # Class of committed instruction
system.cpu0.commit.bw_lim_events              2450570                       # number cycles where commit BW limit reached
system.cpu0.rob.rob_reads                    58099936                       # The number of ROB reads
system.cpu0.rob.rob_writes                   60709705                       # The number of ROB writes
system.cpu0.timesIdled                             75                       # Number of times that the entire CPU went into an idle state and unscheduled itself
system.cpu0.idleCycles                          12236                       # Total number of cycles that the CPU has spent unscheduled due to idling
system.cpu0.committedInsts                   15592994                       # Number of Instructions Simulated
system.cpu0.committedOps                     28625745                       # Number of Ops (including micro ops) Simulated
system.cpu0.cpi                              1.958231                       # CPI: Cycles Per Instruction
system.cpu0.cpi_total                        1.958231                       # CPI: Total CPI of All Threads
system.cpu0.ipc                              0.510665                       # IPC: Instructions Per Cycle
system.cpu0.ipc_total                        0.510665                       # IPC: Total IPC of All Threads
system.cpu0.int_regfile_reads                46141801                       # number of integer regfile reads
system.cpu0.int_regfile_writes               24193705                       # number of integer regfile writes
system.cpu0.fp_regfile_reads                   209878                       # number of floating regfile reads
system.cpu0.fp_regfile_writes                    2184                       # number of floating regfile writes
system.cpu0.cc_regfile_reads                 15928119                       # number of cc regfile reads
system.cpu0.cc_regfile_writes                11247462                       # number of cc regfile writes
system.cpu0.misc_regfile_reads               15095387                       # number of misc regfile reads
system.cpu0.dcache.tags.pwrStateResidencyTicks::UNDEFINED  15267344125                       # Cumulative time (in ticks) in various power states
system.cpu0.dcache.tags.replacements           462714                       # number of replacements
system.cpu0.dcache.tags.tagsinuse                 512                       # Cycle average of tags in use
system.cpu0.dcache.tags.total_refs            7872386                       # Total number of references to valid blocks.
system.cpu0.dcache.tags.sampled_refs           462714                       # Sample count of references to valid blocks.
system.cpu0.dcache.tags.avg_refs            17.013503                       # Average number of references to valid blocks.
system.cpu0.dcache.tags.warmup_cycle                0                       # Cycle when the warmup percentage was hit.
system.cpu0.dcache.tags.occ_blocks::cpu0.data          512                       # Average occupied blocks per requestor
system.cpu0.dcache.tags.occ_percent::cpu0.data            1                       # Average percentage of cache occupancy
system.cpu0.dcache.tags.occ_percent::total            1                       # Average percentage of cache occupancy
system.cpu0.dcache.tags.occ_task_id_blocks::1024          512                       # Occupied blocks per task id
system.cpu0.dcache.tags.age_task_id_blocks_1024::0          198                       # Occupied blocks per task id
system.cpu0.dcache.tags.age_task_id_blocks_1024::1          314                       # Occupied blocks per task id
system.cpu0.dcache.tags.occ_task_id_percent::1024            1                       # Percentage of cache occupancy per task id
system.cpu0.dcache.tags.tag_accesses         28512222                       # Number of tag accesses
system.cpu0.dcache.tags.data_accesses        28512222                       # Number of data accesses
system.cpu0.dcache.pwrStateResidencyTicks::UNDEFINED  15267344125                       # Cumulative time (in ticks) in various power states
system.cpu0.dcache.ReadReq_hits::cpu0.data      3845798                       # number of ReadReq hits
system.cpu0.dcache.ReadReq_hits::total        3845798                       # number of ReadReq hits
system.cpu0.dcache.WriteReq_hits::cpu0.data      2336734                       # number of WriteReq hits
system.cpu0.dcache.WriteReq_hits::total       2336734                       # number of WriteReq hits
system.cpu0.dcache.demand_hits::cpu0.data      6182532                       # number of demand (read+write) hits
system.cpu0.dcache.demand_hits::total         6182532                       # number of demand (read+write) hits
system.cpu0.dcache.overall_hits::cpu0.data      6182532                       # number of overall hits
system.cpu0.dcache.overall_hits::total        6182532                       # number of overall hits
system.cpu0.dcache.ReadReq_misses::cpu0.data       746828                       # number of ReadReq misses
system.cpu0.dcache.ReadReq_misses::total       746828                       # number of ReadReq misses
system.cpu0.dcache.WriteReq_misses::cpu0.data        83017                       # number of WriteReq misses
system.cpu0.dcache.WriteReq_misses::total        83017                       # number of WriteReq misses
system.cpu0.dcache.demand_misses::cpu0.data       829845                       # number of demand (read+write) misses
system.cpu0.dcache.demand_misses::total        829845                       # number of demand (read+write) misses
system.cpu0.dcache.overall_misses::cpu0.data       829845                       # number of overall misses
system.cpu0.dcache.overall_misses::total       829845                       # number of overall misses
system.cpu0.dcache.ReadReq_miss_latency::cpu0.data  42716581500                       # number of ReadReq miss cycles
system.cpu0.dcache.ReadReq_miss_latency::total  42716581500                       # number of ReadReq miss cycles
system.cpu0.dcache.WriteReq_miss_latency::cpu0.data   2524341797                       # number of WriteReq miss cycles
system.cpu0.dcache.WriteReq_miss_latency::total   2524341797                       # number of WriteReq miss cycles
system.cpu0.dcache.demand_miss_latency::cpu0.data  45240923297                       # number of demand (read+write) miss cycles
system.cpu0.dcache.demand_miss_latency::total  45240923297                       # number of demand (read+write) miss cycles
system.cpu0.dcache.overall_miss_latency::cpu0.data  45240923297                       # number of overall miss cycles
system.cpu0.dcache.overall_miss_latency::total  45240923297                       # number of overall miss cycles
system.cpu0.dcache.ReadReq_accesses::cpu0.data      4592626                       # number of ReadReq accesses(hits+misses)
system.cpu0.dcache.ReadReq_accesses::total      4592626                       # number of ReadReq accesses(hits+misses)
system.cpu0.dcache.WriteReq_accesses::cpu0.data      2419751                       # number of WriteReq accesses(hits+misses)
system.cpu0.dcache.WriteReq_accesses::total      2419751                       # number of WriteReq accesses(hits+misses)
system.cpu0.dcache.demand_accesses::cpu0.data      7012377                       # number of demand (read+write) accesses
system.cpu0.dcache.demand_accesses::total      7012377                       # number of demand (read+write) accesses
system.cpu0.dcache.overall_accesses::cpu0.data      7012377                       # number of overall (read+write) accesses
system.cpu0.dcache.overall_accesses::total      7012377                       # number of overall (read+write) accesses
system.cpu0.dcache.ReadReq_miss_rate::cpu0.data     0.162615                       # miss rate for ReadReq accesses
system.cpu0.dcache.ReadReq_miss_rate::total     0.162615                       # miss rate for ReadReq accesses
system.cpu0.dcache.WriteReq_miss_rate::cpu0.data     0.034308                       # miss rate for WriteReq accesses
system.cpu0.dcache.WriteReq_miss_rate::total     0.034308                       # miss rate for WriteReq accesses
system.cpu0.dcache.demand_miss_rate::cpu0.data     0.118340                       # miss rate for demand accesses
[...]
system.l2.demand_miss_rate::cpu0.data        0.509806                       # miss rate for demand accesses
system.l2.demand_miss_rate::total            0.509968                       # miss rate for demand accesses
system.l2.overall_miss_rate::cpu0.inst       0.987261                       # miss rate for overall accesses
system.l2.overall_miss_rate::cpu0.data       0.509806                       # miss rate for overall accesses
system.l2.overall_miss_rate::total           0.509968                       # miss rate for overall accesses
system.l2.ReadExReq_avg_miss_latency::cpu0.data 87975.224010                       # average ReadExReq miss latency
system.l2.ReadExReq_avg_miss_latency::total 87975.224010                       # average ReadExReq miss latency
system.l2.ReadCleanReq_avg_miss_latency::cpu0.inst       123100                       # average ReadCleanReq miss latency
system.l2.ReadCleanReq_avg_miss_latency::total       123100                       # average ReadCleanReq miss latency
system.l2.ReadSharedReq_avg_miss_latency::cpu0.data 89574.443223                       # average ReadSharedReq miss latency
system.l2.ReadSharedReq_avg_miss_latency::total 89574.443223                       # average ReadSharedReq miss latency
system.l2.demand_avg_miss_latency::cpu0.inst       123100                       # average overall miss latency
system.l2.demand_avg_miss_latency::cpu0.data 89448.847571                       # average overall miss latency
system.l2.demand_avg_miss_latency::total 89470.944469                       # average overall miss latency
system.l2.overall_avg_miss_latency::cpu0.inst       123100                       # average overall miss latency
system.l2.overall_avg_miss_latency::cpu0.data 89448.847571                       # average overall miss latency
system.l2.overall_avg_miss_latency::total 89470.944469                       # average overall miss latency
system.l2.blocked_cycles::no_mshrs                  0                       # number of cycles access was blocked
system.l2.blocked_cycles::no_targets                0                       # number of cycles access was blocked
system.l2.blocked::no_mshrs                         0                       # number of cycles access was blocked
system.l2.blocked::no_targets                       0                       # number of cycles access was blocked
system.l2.avg_blocked_cycles::no_mshrs            nan                       # average number of cycles each access was blocked
system.l2.avg_blocked_cycles::no_targets          nan                       # average number of cycles each access was blocked
system.l2.writebacks::writebacks                73425                       # number of writebacks
system.l2.writebacks::total                     73425                       # number of writebacks
system.l2.ReadExReq_mshr_misses::cpu0.data        18526                       # number of ReadExReq MSHR misses
system.l2.ReadExReq_mshr_misses::total          18526                       # number of ReadExReq MSHR misses
system.l2.ReadCleanReq_mshr_misses::cpu0.inst          155                       # number of ReadCleanReq MSHR misses
system.l2.ReadCleanReq_mshr_misses::total          155                       # number of ReadCleanReq MSHR misses
system.l2.ReadSharedReq_mshr_misses::cpu0.data       217367                       # number of ReadSharedReq MSHR misses
system.l2.ReadSharedReq_mshr_misses::total       217367                       # number of ReadSharedReq MSHR misses
system.l2.demand_mshr_misses::cpu0.inst           155                       # number of demand (read+write) MSHR misses
system.l2.demand_mshr_misses::cpu0.data        235893                       # number of demand (read+write) MSHR misses
system.l2.demand_mshr_misses::total            236048                       # number of demand (read+write) MSHR misses
system.l2.overall_mshr_misses::cpu0.inst          155                       # number of overall MSHR misses
system.l2.overall_mshr_misses::cpu0.data       235893                       # number of overall MSHR misses
system.l2.overall_mshr_misses::total           236048                       # number of overall MSHR misses
system.l2.ReadExReq_mshr_miss_latency::cpu0.data   1444559000                       # number of ReadExReq MSHR miss cycles
system.l2.ReadExReq_mshr_miss_latency::total   1444559000                       # number of ReadExReq MSHR miss cycles
system.l2.ReadCleanReq_mshr_miss_latency::cpu0.inst     17530500                       # number of ReadCleanReq MSHR miss cycles
system.l2.ReadCleanReq_mshr_miss_latency::total     17530500                       # number of ReadCleanReq MSHR miss cycles
system.l2.ReadSharedReq_mshr_miss_latency::cpu0.data  17296828000                       # number of ReadSharedReq MSHR miss cycles
system.l2.ReadSharedReq_mshr_miss_latency::total  17296828000                       # number of ReadSharedReq MSHR miss cycles
system.l2.demand_mshr_miss_latency::cpu0.inst     17530500                       # number of demand (read+write) MSHR miss cycles
system.l2.demand_mshr_miss_latency::cpu0.data  18741387000                       # number of demand (read+write) MSHR miss cycles
system.l2.demand_mshr_miss_latency::total  18758917500                       # number of demand (read+write) MSHR miss cycles
system.l2.overall_mshr_miss_latency::cpu0.inst     17530500                       # number of overall MSHR miss cycles
system.l2.overall_mshr_miss_latency::cpu0.data  18741387000                       # number of overall MSHR miss cycles
system.l2.overall_mshr_miss_latency::total  18758917500                       # number of overall MSHR miss cycles
system.l2.ReadExReq_mshr_miss_rate::cpu0.data     0.223159                       # mshr miss rate for ReadExReq accesses
system.l2.ReadExReq_mshr_miss_rate::total     0.223159                       # mshr miss rate for ReadExReq accesses
system.l2.ReadCleanReq_mshr_miss_rate::cpu0.inst     0.987261                       # mshr miss rate for ReadCleanReq accesses
system.l2.ReadCleanReq_mshr_miss_rate::total     0.987261                       # mshr miss rate for ReadCleanReq accesses
system.l2.ReadSharedReq_mshr_miss_rate::cpu0.data     0.572479                       # mshr miss rate for ReadSharedReq accesses
system.l2.ReadSharedReq_mshr_miss_rate::total     0.572479                       # mshr miss rate for ReadSharedReq accesses
system.l2.demand_mshr_miss_rate::cpu0.inst     0.987261                       # mshr miss rate for demand accesses
system.l2.demand_mshr_miss_rate::cpu0.data     0.509806                       # mshr miss rate for demand accesses
system.l2.demand_mshr_miss_rate::total       0.509968                       # mshr miss rate for demand accesses
system.l2.overall_mshr_miss_rate::cpu0.inst     0.987261                       # mshr miss rate for overall accesses
system.l2.overall_mshr_miss_rate::cpu0.data     0.509806                       # mshr miss rate for overall accesses
system.l2.overall_mshr_miss_rate::total      0.509968                       # mshr miss rate for overall accesses
system.l2.ReadExReq_avg_mshr_miss_latency::cpu0.data 77974.684228                       # average ReadExReq mshr miss latency
system.l2.ReadExReq_avg_mshr_miss_latency::total 77974.684228                       # average ReadExReq mshr miss latency
system.l2.ReadCleanReq_avg_mshr_miss_latency::cpu0.inst       113100                       # average ReadCleanReq mshr miss latency
system.l2.ReadCleanReq_avg_mshr_miss_latency::total       113100                       # average ReadCleanReq mshr miss latency
system.l2.ReadSharedReq_avg_mshr_miss_latency::cpu0.data 79574.305207                       # average ReadSharedReq mshr miss latency
system.l2.ReadSharedReq_avg_mshr_miss_latency::total 79574.305207                       # average ReadSharedReq mshr miss latency
system.l2.demand_avg_mshr_miss_latency::cpu0.inst       113100                       # average overall mshr miss latency
system.l2.demand_avg_mshr_miss_latency::cpu0.data 79448.678002                       # average overall mshr miss latency
system.l2.demand_avg_mshr_miss_latency::total 79470.775012                       # average overall mshr miss latency
system.l2.overall_avg_mshr_miss_latency::cpu0.inst       113100                       # average overall mshr miss latency
system.l2.overall_avg_mshr_miss_latency::cpu0.data 79448.678002                       # average overall mshr miss latency
system.l2.overall_avg_mshr_miss_latency::total 79470.775012                       # average overall mshr miss latency
system.membus.snoop_filter.tot_requests        472191                       # Total number of requests made to the snoop filter.
system.membus.snoop_filter.hit_single_requests       236143                       # Number of requests hitting in the snoop filter with a single holder of the requested data.
system.membus.snoop_filter.hit_multi_requests            0                       # Number of requests hitting in the snoop filter with multiple (>1) holders of the requested data.
system.membus.snoop_filter.tot_snoops               0                       # Total number of snoops made to the snoop filter.
system.membus.snoop_filter.hit_single_snoops            0                       # Number of snoops hitting in the snoop filter with a single holder of the requested data.
system.membus.snoop_filter.hit_multi_snoops            0                       # Number of snoops hitting in the snoop filter with multiple (>1) holders of the requested data.
system.membus.pwrStateResidencyTicks::UNDEFINED  15267344125                       # Cumulative time (in ticks) in various power states
system.membus.trans_dist::ReadResp             217525                       # Transaction distribution
system.membus.trans_dist::WritebackDirty        73425                       # Transaction distribution
system.membus.trans_dist::CleanEvict           162718                       # Transaction distribution
system.membus.trans_dist::ReadExReq             18526                       # Transaction distribution
system.membus.trans_dist::ReadExResp            18527                       # Transaction distribution
system.membus.trans_dist::ReadSharedReq        217522                       # Transaction distribution
system.membus.pkt_count_system.l2.mem_side::system.mem_ctrls.port       708243                       # Packet count per connected master and slave (bytes)
system.membus.pkt_count_system.l2.mem_side::total       708243                       # Packet count per connected master and slave (bytes)
system.membus.pkt_count::total                 708243                       # Packet count per connected master and slave (bytes)
system.membus.pkt_size_system.l2.mem_side::system.mem_ctrls.port     19806528                       # Cumulative packet size per connected master and slave (bytes)
system.membus.pkt_size_system.l2.mem_side::total     19806528                       # Cumulative packet size per connected master and slave (bytes)
system.membus.pkt_size::total                19806528                       # Cumulative packet size per connected master and slave (bytes)
system.membus.snoops                                0                       # Total snoops (count)
system.membus.snoopTraffic                          0                       # Total snoop traffic (bytes)
system.membus.snoop_fanout::samples            236048                       # Request fanout histogram
system.membus.snoop_fanout::mean                    0                       # Request fanout histogram
system.membus.snoop_fanout::stdev                   0                       # Request fanout histogram
system.membus.snoop_fanout::underflows              0      0.00%      0.00% # Request fanout histogram
system.membus.snoop_fanout::0                  236048    100.00%    100.00% # Request fanout histogram
system.membus.snoop_fanout::1                       0      0.00%    100.00% # Request fanout histogram
system.membus.snoop_fanout::overflows               0      0.00%    100.00% # Request fanout histogram
system.membus.snoop_fanout::min_value               0                       # Request fanout histogram
system.membus.snoop_fanout::max_value               0                       # Request fanout histogram
system.membus.snoop_fanout::total              236048                       # Request fanout histogram
system.membus.reqLayer12.occupancy          825926000                       # Layer occupancy (ticks)
system.membus.reqLayer12.utilization              5.4                       # Layer utilization (%)
system.membus.respLayer1.occupancy         1236712000                       # Layer occupancy (ticks)
system.membus.respLayer1.utilization              8.1                       # Layer utilization (%)
system.tol2bus.snoop_filter.tot_requests       925739                       # Total number of requests made to the snoop filter.
system.tol2bus.snoop_filter.hit_single_requests       462871                       # Number of requests hitting in the snoop filter with a single holder of the requested data.
system.tol2bus.snoop_filter.hit_multi_requests            0                       # Number of requests hitting in the snoop filter with multiple (>1) holders of the requested data.
system.tol2bus.snoop_filter.tot_snoops             70                       # Total number of snoops made to the snoop filter.
system.tol2bus.snoop_filter.hit_single_snoops           70                       # Number of snoops hitting in the snoop filter with a single holder of the requested data.
system.tol2bus.snoop_filter.hit_multi_snoops            0                       # Number of snoops hitting in the snoop filter with multiple (>1) holders of the requested data.
system.tol2bus.pwrStateResidencyTicks::UNDEFINED  15267344125                       # Cumulative time (in ticks) in various power states
system.tol2bus.trans_dist::ReadResp            379853                       # Transaction distribution
system.tol2bus.trans_dist::WritebackDirty       260441                       # Transaction distribution
system.tol2bus.trans_dist::WritebackClean          157                       # Transaction distribution
system.tol2bus.trans_dist::CleanEvict          438486                       # Transaction distribution
system.tol2bus.trans_dist::ReadExReq            83017                       # Transaction distribution
system.tol2bus.trans_dist::ReadExResp           83018                       # Transaction distribution
system.tol2bus.trans_dist::ReadCleanReq           157                       # Transaction distribution
system.tol2bus.trans_dist::ReadSharedReq       379694                       # Transaction distribution
system.tol2bus.pkt_count_system.cpu0.icache.mem_side::system.l2.cpu_side          471                       # Packet count per connected master and slave (bytes)
system.tol2bus.pkt_count_system.cpu0.dcache.mem_side::system.l2.cpu_side      1388139                       # Packet count per connected master and slave (bytes)
system.tol2bus.pkt_count::total               1388610                       # Packet count per connected master and slave (bytes)
system.tol2bus.pkt_size_system.cpu0.icache.mem_side::system.l2.cpu_side        20096                       # Cumulative packet size per connected master and slave (bytes)
system.tol2bus.pkt_size_system.cpu0.dcache.mem_side::system.l2.cpu_side     41582720                       # Cumulative packet size per connected master and slave (bytes)
system.tol2bus.pkt_size::total               41602816                       # Cumulative packet size per connected master and slave (bytes)
system.tol2bus.snoops                          236213                       # Total snoops (count)
system.tol2bus.snoopTraffic                   4699200                       # Total snoop traffic (bytes)
system.tol2bus.snoop_fanout::samples           699081                       # Request fanout histogram
system.tol2bus.snoop_fanout::mean            0.000100                       # Request fanout histogram
system.tol2bus.snoop_fanout::stdev           0.010006                       # Request fanout histogram
system.tol2bus.snoop_fanout::underflows             0      0.00%      0.00% # Request fanout histogram
system.tol2bus.snoop_fanout::0                 699011     99.99%     99.99% # Request fanout histogram
system.tol2bus.snoop_fanout::1                     70      0.01%    100.00% # Request fanout histogram
system.tol2bus.snoop_fanout::2                      0      0.00%    100.00% # Request fanout histogram
system.tol2bus.snoop_fanout::3                      0      0.00%    100.00% # Request fanout histogram
system.tol2bus.snoop_fanout::4                      0      0.00%    100.00% # Request fanout histogram
system.tol2bus.snoop_fanout::5                      0      0.00%    100.00% # Request fanout histogram
system.tol2bus.snoop_fanout::6                      0      0.00%    100.00% # Request fanout histogram
system.tol2bus.snoop_fanout::7                      0      0.00%    100.00% # Request fanout histogram
system.tol2bus.snoop_fanout::8                      0      0.00%    100.00% # Request fanout histogram
system.tol2bus.snoop_fanout::9                      0      0.00%    100.00% # Request fanout histogram
system.tol2bus.snoop_fanout::10                     0      0.00%    100.00% # Request fanout histogram
system.tol2bus.snoop_fanout::11                     0      0.00%    100.00% # Request fanout histogram
system.tol2bus.snoop_fanout::12                     0      0.00%    100.00% # Request fanout histogram
system.tol2bus.snoop_fanout::13                     0      0.00%    100.00% # Request fanout histogram
system.tol2bus.snoop_fanout::14                     0      0.00%    100.00% # Request fanout histogram
system.tol2bus.snoop_fanout::15                     0      0.00%    100.00% # Request fanout histogram
system.tol2bus.snoop_fanout::16                     0      0.00%    100.00% # Request fanout histogram
system.tol2bus.snoop_fanout::17                     0      0.00%    100.00% # Request fanout histogram
system.tol2bus.snoop_fanout::18                     0      0.00%    100.00% # Request fanout histogram
system.tol2bus.snoop_fanout::19                     0      0.00%    100.00% # Request fanout histogram
system.tol2bus.snoop_fanout::20                     0      0.00%    100.00% # Request fanout histogram
system.tol2bus.snoop_fanout::21                     0      0.00%    100.00% # Request fanout histogram
system.tol2bus.snoop_fanout::22                     0      0.00%    100.00% # Request fanout histogram
system.tol2bus.snoop_fanout::23                     0      0.00%    100.00% # Request fanout histogram
system.tol2bus.snoop_fanout::24                     0      0.00%    100.00% # Request fanout histogram
system.tol2bus.snoop_fanout::overflows              0      0.00%    100.00% # Request fanout histogram
system.tol2bus.snoop_fanout::min_value              0                       # Request fanout histogram
system.tol2bus.snoop_fanout::max_value              1                       # Request fanout histogram
system.tol2bus.snoop_fanout::total             699081                       # Request fanout histogram
system.tol2bus.reqLayer0.occupancy          650042500                       # Layer occupancy (ticks)
system.tol2bus.reqLayer0.utilization              4.3                       # Layer utilization (%)
system.tol2bus.respLayer0.occupancy            235999                       # Layer occupancy (ticks)
system.tol2bus.respLayer0.utilization             0.0                       # Layer utilization (%)
system.tol2bus.respLayer1.occupancy         694071000                       # Layer occupancy (ticks)
system.tol2bus.respLayer1.utilization             4.5                       # Layer utilization (%)

---------- End Simulation Statistics   ----------
