
---------- Begin Simulation Statistics ----------
sim_seconds                                  0.015267                       # Number of seconds simulated
sim_ticks                                 15267344125                       # Number of ticks simulated
final_tick                               4290123699125                       # Number of ticks from beginning of simulation (restored from checkpoints and never reset)
sim_freq                                 1000000000000                       # Frequency of simulated ticks
host_inst_rate                               88687463                       # Simulator instruction rate (inst/s)
host_op_rate                                165338878                       # Simulator op (including micro ops) rate (op/s)
host_tick_rate                              223747712                       # Simulator tick rate (ticks/s)
host_mem_usage                                3428876                       # Number of bytes of host memory used
host_seconds                                    68.23                       # Real time elapsed on the host
sim_insts                                  6051555144                       # Number of instructions simulated
sim_ops                                   11281836994                       # Number of ops (including micro ops) simulated
system.voltage_domain.voltage                       1                       # Voltage in Volts
system.clk_domain.clock                          1000                       # Clock period in ticks
system.mem_ctrls.pwrStateResidencyTicks::UNDEFINED  15267344125                       # Cumulative time (in ticks) in various power states
system.mem_ctrls.bytes_read::cpu0.inst            128                       # Number of bytes read from this memory
system.mem_ctrls.bytes_read::cpu0.data        7930112                       # Number of bytes read from this memory
system.mem_ctrls.bytes_read::total            7930240                       # Number of bytes read from this memory
system.mem_ctrls.bytes_inst_read::cpu0.inst          128                       # Number of instructions bytes read from this memory
system.mem_ctrls.bytes_inst_read::total           128                       # Number of instructions bytes read from this memory
system.mem_ctrls.bytes_written::writebacks        34240                       # Number of bytes written to this memory
system.mem_ctrls.bytes_written::total           34240                       # Number of bytes written to this memory
system.mem_ctrls.num_reads::cpu0.inst               2                       # Number of read requests responded to by this memory
system.mem_ctrls.num_reads::cpu0.data          123908                       # Number of read requests responded to by this memory
system.mem_ctrls.num_reads::total              123910                       # Number of read requests responded to by this memory
system.mem_ctrls.num_writes::writebacks           535                       # Number of write requests responded to by this memory
system.mem_ctrls.num_writes::total                535                       # Number of write requests responded to by this memory
system.mem_ctrls.bw_read::cpu0.inst              8384                       # Total read bandwidth from this memory (bytes/s)
system.mem_ctrls.bw_read::cpu0.data         519416602                       # Total read bandwidth from this memory (bytes/s)
system.mem_ctrls.bw_read::total             519424985                       # Total read bandwidth from this memory (bytes/s)
system.mem_ctrls.bw_inst_read::cpu0.inst         8384                       # Instruction read bandwidth from this memory (bytes/s)
system.mem_ctrls.bw_inst_read::total             8384                       # Instruction read bandwidth from this memory (bytes/s)
system.mem_ctrls.bw_write::writebacks         2242695                       # Write bandwidth from this memory (bytes/s)
system.mem_ctrls.bw_write::total              2242695                       # Write bandwidth from this memory (bytes/s)
system.mem_ctrls.bw_total::writebacks         2242695                       # Total bandwidth to/from this memory (bytes/s)
system.mem_ctrls.bw_total::cpu0.inst             8384                       # Total bandwidth to/from this memory (bytes/s)
system.mem_ctrls.bw_total::cpu0.data        519416602                       # Total bandwidth to/from this memory (bytes/s)
system.mem_ctrls.bw_total::total            521667681                       # Total bandwidth to/from this memory (bytes/s)
system.mem_ctrls.readReqs                      123910                       # Number of read requests accepted
system.mem_ctrls.writeReqs                        535                       # Number of write requests accepted
system.mem_ctrls.readBursts                    123910                       # Number of DRAM read bursts, including those serviced by the write queue
system.mem_ctrls.writeBursts                      535                       # Number of DRAM write bursts, including those merged in the write queue
system.mem_ctrls.bytesReadDRAM                7924416                       # Total number of bytes read from DRAM
system.mem_ctrls.bytesReadWrQ                    5824                       # Total number of bytes read from write queue
system.mem_ctrls.bytesWritten                   34176                       # Total number of bytes written to DRAM
system.mem_ctrls.bytesReadSys                 7930240                       # Total read bytes from the system interface side
system.mem_ctrls.bytesWrittenSys                34240                       # Total written bytes from the system interface side
system.mem_ctrls.servicedByWrQ                     91                       # Number of DRAM read bursts serviced by the write queue
system.mem_ctrls.mergedWrBursts                     0                       # Number of DRAM write bursts merged with an existing one
system.mem_ctrls.neitherReadNorWriteReqs            0                       # Number of requests that are neither read nor write
system.mem_ctrls.perBankRdBursts::0              7300                       # Per bank write bursts
system.mem_ctrls.perBankRdBursts::1              7263                       # Per bank write bursts
system.mem_ctrls.perBankRdBursts::2              7129                       # Per bank write bursts
system.mem_ctrls.perBankRdBursts::3              8117                       # Per bank write bursts
system.mem_ctrls.perBankRdBursts::4              8330                       # Per bank write bursts
system.mem_ctrls.perBankRdBursts::5              8041                       # Per bank write bursts
system.mem_ctrls.perBankRdBursts::6              8117                       # Per bank write bursts
system.mem_ctrls.perBankRdBursts::7              7664                       # Per bank write bursts
system.mem_ctrls.perBankRdBursts::8              7694                       # Per bank write bursts
system.mem_ctrls.perBankRdBursts::9              7493                       # Per bank write bursts
system.mem_ctrls.perBankRdBursts::10             7781                       # Per bank write bursts
system.mem_ctrls.perBankRdBursts::11             7619                       # Per bank write bursts
system.mem_ctrls.perBankRdBursts::12             7953                       # Per bank write bursts
system.mem_ctrls.perBankRdBursts::13             8051                       # Per bank write bursts
system.mem_ctrls.perBankRdBursts::14             7599                       # Per bank write bursts
system.mem_ctrls.perBankRdBursts::15             7668                       # Per bank write bursts
system.mem_ctrls.perBankWrBursts::0                34                       # Per bank write bursts
system.mem_ctrls.perBankWrBursts::1                 5                       # Per bank write bursts
system.mem_ctrls.perBankWrBursts::2                 5                       # Per bank write bursts
system.mem_ctrls.perBankWrBursts::3                28                       # Per bank write bursts
system.mem_ctrls.perBankWrBursts::4                 5                       # Per bank write bursts
system.mem_ctrls.perBankWrBursts::5                 6                       # Per bank write bursts
system.mem_ctrls.perBankWrBursts::6                 7                       # Per bank write bursts
system.mem_ctrls.perBankWrBursts::7                41                       # Per bank write bursts
system.mem_ctrls.perBankWrBursts::8                36                       # Per bank write bursts
system.mem_ctrls.perBankWrBursts::9                21                       # Per bank write bursts
system.mem_ctrls.perBankWrBursts::10               20                       # Per bank write bursts
system.mem_ctrls.perBankWrBursts::11               34                       # Per bank write bursts
system.mem_ctrls.perBankWrBursts::12               84                       # Per bank write bursts
system.mem_ctrls.perBankWrBursts::13               79                       # Per bank write bursts
system.mem_ctrls.perBankWrBursts::14               66                       # Per bank write bursts
system.mem_ctrls.perBankWrBursts::15               63                       # Per bank write bursts
system.mem_ctrls.numRdRetry                         0                       # Number of times read queue was full causing retry
system.mem_ctrls.numWrRetry                         0                       # Number of times write queue was full causing retry
system.mem_ctrls.totGap                   15267331000                       # Total gap between requests
system.mem_ctrls.readPktSize::0                     0                       # Read request sizes (log2)
system.mem_ctrls.readPktSize::1                     0                       # Read request sizes (log2)
system.mem_ctrls.readPktSize::2                     0                       # Read request sizes (log2)
system.mem_ctrls.readPktSize::3                     0                       # Read request sizes (log2)
system.mem_ctrls.readPktSize::4                     0                       # Read request sizes (log2)
system.mem_ctrls.readPktSize::5                     0                       # Read request sizes (log2)
system.mem_ctrls.readPktSize::6                123910                       # Read request sizes (log2)
system.mem_ctrls.writePktSize::0                    0                       # Write request sizes (log2)
system.mem_ctrls.writePktSize::1                    0                       # Write request sizes (log2)
system.mem_ctrls.writePktSize::2                    0                       # Write request sizes (log2)
system.mem_ctrls.writePktSize::3                    0                       # Write request sizes (log2)
system.mem_ctrls.writePktSize::4                    0                       # Write request sizes (log2)
system.mem_ctrls.writePktSize::5                    0                       # Write request sizes (log2)
system.mem_ctrls.writePktSize::6                  535                       # Write request sizes (log2)
system.mem_ctrls.rdQLenPdf::0                   98672                       # What read queue length does an incoming req see
system.mem_ctrls.rdQLenPdf::1                   23184                       # What read queue length does an incoming req see
system.mem_ctrls.rdQLenPdf::2                    1885                       # What read queue length does an incoming req see
system.mem_ctrls.rdQLenPdf::3                      78                       # What read queue length does an incoming req see
system.mem_ctrls.rdQLenPdf::4                       0                       # What read queue length does an incoming req see
system.mem_ctrls.rdQLenPdf::5                       0                       # What read queue length does an incoming req see
system.mem_ctrls.rdQLenPdf::6                       0                       # What read queue length does an incoming req see
system.mem_ctrls.rdQLenPdf::7                       0                       # What read queue length does an incoming req see
system.mem_ctrls.rdQLenPdf::8                       0                       # What read queue length does an incoming req see
system.mem_ctrls.rdQLenPdf::9                       0                       # What read queue length does an incoming req see
system.mem_ctrls.rdQLenPdf::10                      0                       # What read queue length does an incoming req see
system.mem_ctrls.rdQLenPdf::11                      0                       # What read queue length does an incoming req see
system.mem_ctrls.rdQLenPdf::12                      0                       # What read queue length does an incoming req see
system.mem_ctrls.rdQLenPdf::13                      0                       # What read queue length does an incoming req see
system.mem_ctrls.rdQLenPdf::14                      0                       # What read queue length does an incoming req see
system.mem_ctrls.rdQLenPdf::15                      0                       # What read queue length does an incoming req see
system.mem_ctrls.rdQLenPdf::16                      0                       # What read queue length does an incoming req see
system.mem_ctrls.rdQLenPdf::17                      0                       # What read queue length does an incoming req see
system.mem_ctrls.rdQLenPdf::18                      0                       # What read queue length does an incoming req see
system.mem_ctrls.rdQLenPdf::19                      0                       # What read queue length does an incoming req see
system.mem_ctrls.rdQLenPdf::20                      0                       # What read queue length does an incoming req see
system.mem_ctrls.rdQLenPdf::21                      0                       # What read queue length does an incoming req see
system.mem_ctrls.rdQLenPdf::22                      0                       # What read queue length does an incoming req see
system.mem_ctrls.rdQLenPdf::23                      0                       # What read queue length does an incoming req see
system.mem_ctrls.rdQLenPdf::24                      0                       # What read queue length does an incoming req see
system.mem_ctrls.rdQLenPdf::25                      0                       # What read queue length does an incoming req see
system.mem_ctrls.rdQLenPdf::26                      0                       # What read queue length does an incoming req see
system.mem_ctrls.rdQLenPdf::27                      0                       # What read queue length does an incoming req see
system.mem_ctrls.rdQLenPdf::28                      0                       # What read queue length does an incoming req see
system.mem_ctrls.rdQLenPdf::29                      0                       # What read queue length does an incoming req see
system.mem_ctrls.rdQLenPdf::30                      0                       # What read queue length does an incoming req see
system.mem_ctrls.rdQLenPdf::31                      0                       # What read queue length does an incoming req see
system.mem_ctrls.wrQLenPdf::0                       0                       # What write queue length does an incoming req see
system.mem_ctrls.wrQLenPdf::1                       0                       # What write queue length does an incoming req see
system.mem_ctrls.wrQLenPdf::2                       0                       # What write queue length does an incoming req see
system.mem_ctrls.wrQLenPdf::3                       0                       # What write queue length does an incoming req see
system.mem_ctrls.wrQLenPdf::4                       0                       # What write queue length does an incoming req see
system.mem_ctrls.wrQLenPdf::5                       0                       # What write queue length does an incoming req see
system.mem_ctrls.wrQLenPdf::6                       0                       # What write queue length does an incoming req see
system.mem_ctrls.wrQLenPdf::7                       0                       # What write queue length does an incoming req see
system.mem_ctrls.wrQLenPdf::8                       0                       # What write queue length does an incoming req see
system.mem_ctrls.wrQLenPdf::9                       0                       # What write queue length does an incoming req see
system.mem_ctrls.wrQLenPdf::10                      0                       # What write queue length does an incoming req see
system.mem_ctrls.wrQLenPdf::11                      0                       # What write queue length does an incoming req see
system.mem_ctrls.wrQLenPdf::12                      0                       # What write queue length does an incoming req see
system.mem_ctrls.wrQLenPdf::13                      0                       # What write queue length does an incoming req see
system.mem_ctrls.wrQLenPdf::14                      0                       # What write queue length does an incoming req see
system.mem_ctrls.wrQLenPdf::15                      3                       # What write queue length does an incoming req see
system.mem_ctrls.wrQLenPdf::16                      3                       # What write queue length does an incoming req see
system.mem_ctrls.wrQLenPdf::17                     33                       # What write queue length does an incoming req see
system.mem_ctrls.wrQLenPdf::18                     33                       # What write queue length does an incoming req see
system.mem_ctrls.wrQLenPdf::19                     33                       # What write queue length does an incoming req see
system.mem_ctrls.wrQLenPdf::20                     33                       # What write queue length does an incoming req see
system.mem_ctrls.wrQLenPdf::21                     33                       # What write queue length does an incoming req see
system.mem_ctrls.wrQLenPdf::22                     33                       # What write queue length does an incoming req see
system.mem_ctrls.wrQLenPdf::23                     33                       # What write queue length does an incoming req see
system.mem_ctrls.wrQLenPdf::24                     33                       # What write queue length does an incoming req see
system.mem_ctrls.wrQLenPdf::25                     33                       # What write queue length does an incoming req see
system.mem_ctrls.wrQLenPdf::26                     34                       # What write queue length does an incoming req see
system.mem_ctrls.wrQLenPdf::27                     33                       # What write queue length does an incoming req see
system.mem_ctrls.wrQLenPdf::28                     33                       # What write queue length does an incoming req see
system.mem_ctrls.wrQLenPdf::29                     33                       # What write queue length does an incoming req see
system.mem_ctrls.wrQLenPdf::30                     33                       # What write queue length does an incoming req see
system.mem_ctrls.wrQLenPdf::31                     33                       # What write queue length does an incoming req see
system.mem_ctrls.wrQLenPdf::32                     33                       # What write queue length does an incoming req see
system.mem_ctrls.wrQLenPdf::33                      0                       # What write queue length does an incoming req see
system.mem_ctrls.wrQLenPdf::34                      0                       # What write queue length does an incoming req see
system.mem_ctrls.wrQLenPdf::35                      0                       # What write queue length does an incoming req see
system.mem_ctrls.wrQLenPdf::36                      0                       # What write queue length does an incoming req see
system.mem_ctrls.wrQLenPdf::37                      0                       # What write queue length does an incoming req see
system.mem_ctrls.wrQLenPdf::38                      0                       # What write queue length does an incoming req see
system.mem_ctrls.wrQLenPdf::39                      0                       # What write queue length does an incoming req see
system.mem_ctrls.wrQLenPdf::40                      0                       # What write queue length does an incoming req see
system.mem_ctrls.wrQLenPdf::41                      0                       # What write queue length does an incoming req see
system.mem_ctrls.wrQLenPdf::42                      0                       # What write queue length does an incoming req see
system.mem_ctrls.wrQLenPdf::43                      0                       # What write queue length does an incoming req see
system.mem_ctrls.wrQLenPdf::44                      0                       # What write queue length does an incoming req see
system.mem_ctrls.wrQLenPdf::45                      0                       # What write queue length does an incoming req see
system.mem_ctrls.wrQLenPdf::46                      0                       # What write queue length does an incoming req see
system.mem_ctrls.wrQLenPdf::47                      0                       # What write queue length does an incoming req see
system.mem_ctrls.wrQLenPdf::48                      0                       # What write queue length does an incoming req see
system.mem_ctrls.wrQLenPdf::49                      0                       # What write queue length does an incoming req see
system.mem_ctrls.wrQLenPdf::50                      0                       # What write queue length does an incoming req see
system.mem_ctrls.wrQLenPdf::51                      0                       # What write queue length does an incoming req see
system.mem_ctrls.wrQLenPdf::52                      0                       # What write queue length does an incoming req see
system.mem_ctrls.wrQLenPdf::53                      0                       # What write queue length does an incoming req see
system.mem_ctrls.wrQLenPdf::54                      0                       # What write queue length does an incoming req see
system.mem_ctrls.wrQLenPdf::55                      0                       # What write queue length does an incoming req see
system.mem_ctrls.wrQLenPdf::56                      0                       # What write queue length does an incoming req see
system.mem_ctrls.wrQLenPdf::57                      0                       # What write queue length does an incoming req see
system.mem_ctrls.wrQLenPdf::58                      0                       # What write queue length does an incoming req see
system.mem_ctrls.wrQLenPdf::59                      0                       # What write queue length does an incoming req see
system.mem_ctrls.wrQLenPdf::60                      0                       # What write queue length does an incoming req see
system.mem_ctrls.wrQLenPdf::61                      0                       # What write queue length does an incoming req see
system.mem_ctrls.wrQLenPdf::62                      0                       # What write queue length does an incoming req see
system.mem_ctrls.wrQLenPdf::63                      0                       # What write queue length does an incoming req see
system.mem_ctrls.bytesPerActivate::samples        80391                       # Bytes accessed per row activation
system.mem_ctrls.bytesPerActivate::mean     99.016059                       # Bytes accessed per row activation
system.mem_ctrls.bytesPerActivate::gmean    87.951834                       # Bytes accessed per row activation
system.mem_ctrls.bytesPerActivate::stdev    56.776460                       # Bytes accessed per row activation
system.mem_ctrls.bytesPerActivate::64-127        51190     63.68%     63.68% # Bytes accessed per row activation
system.mem_ctrls.bytesPerActivate::128-191        19171     23.85%     87.52% # Bytes accessed per row activation
system.mem_ctrls.bytesPerActivate::192-255         6736      8.38%     95.90% # Bytes accessed per row activation
system.mem_ctrls.bytesPerActivate::256-319         2276      2.83%     98.73% # Bytes accessed per row activation
system.mem_ctrls.bytesPerActivate::320-383          723      0.90%     99.63% # Bytes accessed per row activation
system.mem_ctrls.bytesPerActivate::384-447          207      0.26%     99.89% # Bytes accessed per row activation
system.mem_ctrls.bytesPerActivate::448-511           51      0.06%     99.95% # Bytes accessed per row activation
system.mem_ctrls.bytesPerActivate::512-575           26      0.03%     99.99% # Bytes accessed per row activation
system.mem_ctrls.bytesPerActivate::576-639            4      0.00%     99.99% # Bytes accessed per row activation
system.mem_ctrls.bytesPerActivate::640-703            4      0.00%    100.00% # Bytes accessed per row activation
system.mem_ctrls.bytesPerActivate::704-767            3      0.00%    100.00% # Bytes accessed per row activation
system.mem_ctrls.bytesPerActivate::total        80391                       # Bytes accessed per row activation
system.mem_ctrls.rdPerTurnAround::samples           33                       # Reads before turning the bus around for writes
system.mem_ctrls.rdPerTurnAround::mean    3768.181818                       # Reads before turning the bus around for writes
system.mem_ctrls.rdPerTurnAround::gmean   3687.147004                       # Reads before turning the bus around for writes
system.mem_ctrls.rdPerTurnAround::stdev    799.213303                       # Reads before turning the bus around for writes
system.mem_ctrls.rdPerTurnAround::2304-2559            1      3.03%      3.03% # Reads before turning the bus around for writes
system.mem_ctrls.rdPerTurnAround::2560-2815            3      9.09%     12.12% # Reads before turning the bus around for writes
system.mem_ctrls.rdPerTurnAround::2816-3071            3      9.09%     21.21% # Reads before turning the bus around for writes
system.mem_ctrls.rdPerTurnAround::3072-3327            3      9.09%     30.30% # Reads before turning the bus around for writes
system.mem_ctrls.rdPerTurnAround::3328-3583            6     18.18%     48.48% # Reads before turning the bus around for writes
system.mem_ctrls.rdPerTurnAround::3584-3839            2      6.06%     54.55% # Reads before turning the bus around for writes
system.mem_ctrls.rdPerTurnAround::3840-4095            7     21.21%     75.76% # Reads before turning the bus around for writes
system.mem_ctrls.rdPerTurnAround::4352-4607            1      3.03%     78.79% # Reads before turning the bus around for writes
system.mem_ctrls.rdPerTurnAround::4608-4863            3      9.09%     87.88% # Reads before turning the bus around for writes
system.mem_ctrls.rdPerTurnAround::4864-5119            2      6.06%     93.94% # Reads before turning the bus around for writes
system.mem_ctrls.rdPerTurnAround::5376-5631            2      6.06%    100.00% # Reads before turning the bus around for writes
system.mem_ctrls.rdPerTurnAround::total            33                       # Reads before turning the bus around for writes
system.mem_ctrls.wrPerTurnAround::samples           33                       # Writes before turning the bus around for reads
system.mem_ctrls.wrPerTurnAround::mean      16.181818                       # Writes before turning the bus around for reads
system.mem_ctrls.wrPerTurnAround::gmean     16.172241                       # Writes before turning the bus around for reads
system.mem_ctrls.wrPerTurnAround::stdev      0.583874                       # Writes before turning the bus around for reads
system.mem_ctrls.wrPerTurnAround::16               30     90.91%     90.91% # Writes before turning the bus around for reads
system.mem_ctrls.wrPerTurnAround::18                3      9.09%    100.00% # Writes before turning the bus around for reads
system.mem_ctrls.wrPerTurnAround::total            33                       # Writes before turning the bus around for reads
system.mem_ctrls.totQLat                   3388022250                       # Total ticks spent queuing
system.mem_ctrls.totMemAccLat              5709628500                       # Total ticks spent from burst creation until serviced by the DRAM
system.mem_ctrls.totBusLat                  619095000                       # Total ticks spent in databus transfers
system.mem_ctrls.avgQLat                     27362.70                       # Average queueing delay per DRAM burst
system.mem_ctrls.avgBusLat                    5000.00                       # Average bus latency per DRAM burst
system.mem_ctrls.avgMemAccLat                46112.70                       # Average memory access latency per DRAM burst
system.mem_ctrls.avgRdBW                       519.04                       # Average DRAM read bandwidth in MiByte/s
system.mem_ctrls.avgWrBW                         2.24                       # Average achieved write bandwidth in MiByte/s
system.mem_ctrls.avgRdBWSys                    519.42                       # Average system read bandwidth in MiByte/s
system.mem_ctrls.avgWrBWSys                      2.24                       # Average system write bandwidth in MiByte/s
system.mem_ctrls.peakBW                      12800.00                       # Theoretical peak bandwidth in MiByte/s
system.mem_ctrls.busUtil                         4.07                       # Data bus utilization in percentage
system.mem_ctrls.busUtilRead                     4.06                       # Data bus utilization in percentage for reads
system.mem_ctrls.busUtilWrite                    0.02                       # Data bus utilization in percentage for writes
system.mem_ctrls.avgRdQLen                       1.19                       # Average read queue length when enqueuing
system.mem_ctrls.avgWrQLen                      25.97                       # Average write queue length when enqueuing
system.mem_ctrls.readRowHits                    43603                       # Number of row buffer hits during reads
system.mem_ctrls.writeRowHits                     369                       # Number of row buffer hits during writes
system.mem_ctrls.readRowHitRate                 35.22                       # Row buffer hit rate for reads
system.mem_ctrls.writeRowHitRate                68.97                       # Row buffer hit rate for writes
system.mem_ctrls.avgGap                     122683.36                       # Average gap between requests
system.mem_ctrls.pageHitRate                    35.36                       # Row buffer hit rate, read and write combined
system.mem_ctrls_0.actEnergy                286185480                       # Energy for activate commands per rank (pJ)
system.mem_ctrls_0.preEnergy                152133960                       # Energy for precharge commands per rank (pJ)
system.mem_ctrls_0.readEnergy               442401540                       # Energy for read commands per rank (pJ)
system.mem_ctrls_0.writeEnergy                 683820                       # Energy for write commands per rank (pJ)
system.mem_ctrls_0.refreshEnergy         1213914000.000000                       # Energy for refresh commands per rank (pJ)
system.mem_ctrls_0.actBackEnergy           1228432080                       # Energy for active background per rank (pJ)
system.mem_ctrls_0.preBackEnergy             28133280                       # Energy for precharge background per rank (pJ)
system.mem_ctrls_0.actPowerDownEnergy      5190599550                       # Energy for active power-down per rank (pJ)
system.mem_ctrls_0.prePowerDownEnergy       381057120                       # Energy for precharge power-down per rank (pJ)
system.mem_ctrls_0.selfRefreshEnergy         47652780                       # Energy for self refresh per rank (pJ)
system.mem_ctrls_0.totalEnergy             8971193610                       # Total energy per rank (pJ)
system.mem_ctrls_0.averagePower            587.606694                       # Core power per rank (mW)
system.mem_ctrls_0.totalIdleTime          12500263000                       # Total Idle time Per DRAM Rank
system.mem_ctrls_0.memoryStateTime::IDLE     18529500                       # Time in different power states
system.mem_ctrls_0.memoryStateTime::REF     513698000                       # Time in different power states
system.mem_ctrls_0.memoryStateTime::SREF    124926250                       # Time in different power states
system.mem_ctrls_0.memoryStateTime::PRE_PDN    992371000                       # Time in different power states
system.mem_ctrls_0.memoryStateTime::ACT    2234791750                       # Time in different power states
system.mem_ctrls_0.memoryStateTime::ACT_PDN  11383027625                       # Time in different power states
system.mem_ctrls_1.actEnergy                287734860                       # Energy for activate commands per rank (pJ)
system.mem_ctrls_1.preEnergy                152949885                       # Energy for precharge commands per rank (pJ)
system.mem_ctrls_1.readEnergy               441666120                       # Energy for read commands per rank (pJ)
system.mem_ctrls_1.writeEnergy                2103660                       # Energy for write commands per rank (pJ)
system.mem_ctrls_1.refreshEnergy         1211455440.000000                       # Energy for refresh commands per rank (pJ)
system.mem_ctrls_1.actBackEnergy           1228548360                       # Energy for active background per rank (pJ)
system.mem_ctrls_1.preBackEnergy             27502080                       # Energy for precharge background per rank (pJ)
system.mem_ctrls_1.actPowerDownEnergy      5191043010                       # Energy for active power-down per rank (pJ)
system.mem_ctrls_1.prePowerDownEnergy       383964000                       # Energy for precharge power-down per rank (pJ)
system.mem_ctrls_1.selfRefreshEnergy         43174680                       # Energy for self refresh per rank (pJ)
system.mem_ctrls_1.totalEnergy             8970320235                       # Total energy per rank (pJ)
system.mem_ctrls_1.averagePower            587.549489                       # Core power per rank (mW)
system.mem_ctrls_1.totalIdleTime          12500882500                       # Total Idle time Per DRAM Rank
system.mem_ctrls_1.memoryStateTime::IDLE     17073500                       # Time in different power states
system.mem_ctrls_1.memoryStateTime::REF     512628000                       # Time in different power states
system.mem_ctrls_1.memoryStateTime::SREF    117372000                       # Time in different power states
system.mem_ctrls_1.memoryStateTime::PRE_PDN    999856125                       # Time in different power states
system.mem_ctrls_1.memoryStateTime::ACT    2236365500                       # Time in different power states
system.mem_ctrls_1.memoryStateTime::ACT_PDN  11384049000                       # Time in different power states
system.pwrStateResidencyTicks::UNDEFINED  15267344125                       # Cumulative time (in ticks) in various power states
system.cpu0.branchPred.lookups                3264365                       # Number of BP lookups
system.cpu0.branchPred.condPredicted          3264365                       # Number of conditional branches predicted
system.cpu0.branchPred.condIncorrect           118520                       # Number of conditional branches incorrect
system.cpu0.branchPred.BTBLookups             2283554                       # Number of BTB lookups
system.cpu0.branchPred.BTBHits                      0                       # Number of BTB hits
system.cpu0.branchPred.BTBCorrect                   0                       # Number of correct BTB predictions (this stat may not work properly.
system.cpu0.branchPred.BTBHitPct             0.000000                       # BTB Hit Percentage
system.cpu0.branchPred.usedRAS                  64731                       # Number of times the RAS was used to get a target.
system.cpu0.branchPred.RASInCorrect              8847                       # Number of incorrect RAS predictions.
system.cpu0.branchPred.indirectLookups        2283554                       # Number of indirect predictor lookups.
system.cpu0.branchPred.indirectHits           1445492                       # Number of indirect target hits.
system.cpu0.branchPred.indirectMisses          838062                       # Number of indirect misses.
system.cpu0.branchPredindirectMispredicted        31039                       # Number of mispredicted indirect branches.
system.cpu_voltage_domain.voltage                   1                       # Voltage in Volts
system.cpu_clk_domain.clock                       500                       # Clock period in ticks
system.cpu0.dtb.walker.pwrStateResidencyTicks::UNDEFINED  15267344125                       # Cumulative time (in ticks) in various power states
system.cpu0.dtb.rdAccesses                    1577717                       # TLB accesses on read requests
system.cpu0.dtb.wrAccesses                      75465                       # TLB accesses on write requests
system.cpu0.dtb.rdMisses                       362331                       # TLB misses on read requests
system.cpu0.dtb.wrMisses                         1276                       # TLB misses on write requests
system.cpu0.apic_clk_domain.clock                8000                       # Clock period in ticks
system.cpu0.interrupts.pwrStateResidencyTicks::UNDEFINED  15267344125                       # Cumulative time (in ticks) in various power states
system.cpu0.itb.walker.pwrStateResidencyTicks::UNDEFINED  15267344125                       # Cumulative time (in ticks) in various power states
system.cpu0.itb.rdAccesses                          0                       # TLB accesses on read requests
system.cpu0.itb.wrAccesses                    2864132                       # TLB accesses on write requests
system.cpu0.itb.rdMisses                            0                       # TLB misses on read requests
system.cpu0.itb.wrMisses                         5610                       # TLB misses on write requests
system.cpu0.workload.numSyscalls                    0                       # Number of system calls
system.cpu0.pwrStateResidencyTicks::ON    15267344125                       # Cumulative time (in ticks) in various power states
system.cpu0.numCycles                        30534688                       # number of cpu cycles simulated
system.cpu0.numWorkItemsStarted                     0                       # number of work items this cpu started
system.cpu0.numWorkItemsCompleted                   0                       # number of work items this cpu completed
system.cpu0.fetch.icacheStallCycles           2914721                       # Number of cycles fetch is stalled on an Icache miss
system.cpu0.fetch.Insts                       9158164                       # Number of instructions fetch has processed
system.cpu0.fetch.Branches                    3264365                       # Number of branches that fetch encountered
system.cpu0.fetch.predictedBranches           1510223                       # Number of branches that fetch has predicted taken
system.cpu0.fetch.Cycles                     27430945                       # Number of cycles fetch has run and was not squashing or blocked
system.cpu0.fetch.SquashCycles                 240622                       # Number of cycles fetch has spent squashing
system.cpu0.fetch.TlbCycles                      1505                       # Number of cycles fetch has spent waiting for tlb
system.cpu0.fetch.MiscStallCycles                1206                       # Number of cycles fetch has spent waiting on interrupts, or bad addresses, or out of MSHRs
system.cpu0.fetch.PendingTrapStallCycles        45492                       # Number of stall cycles due to pending traps
system.cpu0.fetch.CacheLines                  2858522                       # Number of cache lines fetched
system.cpu0.fetch.IcacheSquashes                16059                       # Number of outstanding Icache misses that were squashed
system.cpu0.fetch.ItlbSquashes                     11                       # Number of outstanding ITLB misses that were squashed
system.cpu0.fetch.rateDist::samples          30514180                       # Number of instructions fetched each cycle (Total)
system.cpu0.fetch.rateDist::mean             0.601692                       # Number of instructions fetched each cycle (Total)
system.cpu0.fetch.rateDist::stdev            1.899059                       # Number of instructions fetched each cycle (Total)
system.cpu0.fetch.rateDist::underflows              0      0.00%      0.00% # Number of instructions fetched each cycle (Total)
system.cpu0.fetch.rateDist::0                26873460     88.07%     88.07% # Number of instructions fetched each cycle (Total)
system.cpu0.fetch.rateDist::1                   25816      0.08%     88.15% # Number of instructions fetched each cycle (Total)
system.cpu0.fetch.rateDist::2                 1464368      4.80%     92.95% # Number of instructions fetched each cycle (Total)
system.cpu0.fetch.rateDist::3                   35538      0.12%     93.07% # Number of instructions fetched each cycle (Total)
system.cpu0.fetch.rateDist::4                  248373      0.81%     93.88% # Number of instructions fetched each cycle (Total)
system.cpu0.fetch.rateDist::5                   89558      0.29%     94.18% # Number of instructions fetched each cycle (Total)
system.cpu0.fetch.rateDist::6                  164427      0.54%     94.72% # Number of instructions fetched each cycle (Total)
system.cpu0.fetch.rateDist::7                   30007      0.10%     94.81% # Number of instructions fetched each cycle (Total)
system.cpu0.fetch.rateDist::8                 1582633      5.19%    100.00% # Number of instructions fetched each cycle (Total)
system.cpu0.fetch.rateDist::overflows               0      0.00%    100.00% # Number of instructions fetched each cycle (Total)
system.cpu0.fetch.rateDist::min_value               0                       # Number of instructions fetched each cycle (Total)
system.cpu0.fetch.rateDist::max_value               8                       # Number of instructions fetched each cycle (Total)
system.cpu0.fetch.rateDist::total            30514180                       # Number of instructions fetched each cycle (Total)
system.cpu0.fetch.branchRate                 0.106907                       # Number of branch fetches per cycle
system.cpu0.fetch.rate                       0.299927                       # Number of inst fetches per cycle
system.cpu0.decode.IdleCycles                 1430789                       # Number of cycles decode is idle
system.cpu0.decode.BlockedCycles             26549451                       # Number of cycles decode is blocked
system.cpu0.decode.RunCycles                  1774501                       # Number of cycles decode is running
system.cpu0.decode.UnblockCycles               639128                       # Number of cycles decode is unblocking
system.cpu0.decode.SquashCycles                120311                       # Number of cycles decode is squashing
system.cpu0.decode.DecodedInsts              15448116                       # Number of instructions handled by decode
system.cpu0.rename.SquashCycles                120311                       # Number of cycles rename is squashing
system.cpu0.rename.IdleCycles                 1644387                       # Number of cycles rename is idle
system.cpu0.rename.BlockCycles               24241194                       # Number of cycles rename is blocking
system.cpu0.rename.serializeStallCycles         19880                       # count of cycles rename stalled for serializing inst
system.cpu0.rename.RunCycles                  2063789                       # Number of cycles rename is running
system.cpu0.rename.UnblockCycles              2424619                       # Number of cycles rename is unblocking
system.cpu0.rename.RenamedInsts              14903324                       # Number of instructions processed by rename
system.cpu0.rename.ROBFullEvents                61859                       # Number of times rename has blocked due to ROB full
system.cpu0.rename.IQFullEvents               2125946                       # Number of times rename has blocked due to IQ full
system.cpu0.rename.LQFullEvents                198008                       # Number of times rename has blocked due to LQ full
system.cpu0.rename.SQFullEvents                 10970                       # Number of times rename has blocked due to SQ full
system.cpu0.rename.RenamedOperands           17825482                       # Number of destination operands rename has renamed
system.cpu0.rename.RenameLookups             42040983                       # Number of register rename lookups that rename has made
system.cpu0.rename.int_rename_lookups        19218506                       # Number of integer rename lookups
system.cpu0.rename.fp_rename_lookups            66869                       # Number of floating rename lookups
system.cpu0.rename.CommittedMaps              7056671                       # Number of HB maps that are committed
system.cpu0.rename.UndoneMaps                10768826                       # Number of HB maps that are undone due to squashing
system.cpu0.rename.serializingInsts               480                       # count of serializing insts renamed
system.cpu0.rename.tempSerializingInsts           571                       # count of temporary serializing insts renamed
system.cpu0.rename.skidInsts                  4086818                       # count of insts added to the skid buffer
system.cpu0.memDep0.insertedLoads             2776977                       # Number of loads inserted to the mem dependence unit.
system.cpu0.memDep0.insertedStores             105868                       # Number of stores inserted to the mem dependence unit.
system.cpu0.memDep0.conflictingLoads             6740                       # Number of conflicting loads.
system.cpu0.memDep0.conflictingStores            6459                       # Number of conflicting stores.
system.cpu0.iq.iqInstsAdded                  14272099                       # Number of instructions added to the IQ (excludes non-spec)
system.cpu0.iq.iqNonSpecInstsAdded               5880                       # Number of non-speculative instructions added to the IQ
system.cpu0.iq.iqInstsIssued                 10260861                       # Number of instructions issued
system.cpu0.iq.iqSquashedInstsIssued            10135                       # Number of squashed instructions issued
system.cpu0.iq.iqSquashedInstsExamined        8390162                       # Number of squashed instructions iterated over during squash; mainly for profiling
system.cpu0.iq.iqSquashedOperandsExamined     18611658                       # Number of squashed operands that are examined and possibly removed from graph
system.cpu0.iq.iqSquashedNonSpecRemoved          5880                       # Number of squashed non-spec instructions that were removed
system.cpu0.iq.issued_per_cycle::samples     30514180                       # Number of insts issued each cycle
system.cpu0.iq.issued_per_cycle::mean        0.336265                       # Number of insts issued each cycle
system.cpu0.iq.issued_per_cycle::stdev       1.020764                       # Number of insts issued each cycle
system.cpu0.iq.issued_per_cycle::underflows            0      0.00%      0.00% # Number of insts issued each cycle
system.cpu0.iq.issued_per_cycle::0           26282036     86.13%     86.13% # Number of insts issued each cycle
system.cpu0.iq.issued_per_cycle::1            1646367      5.40%     91.53% # Number of insts issued each cycle
system.cpu0.iq.issued_per_cycle::2             920938      3.02%     94.54% # Number of insts issued each cycle
system.cpu0.iq.issued_per_cycle::3             631847      2.07%     96.61% # Number of insts issued each cycle
system.cpu0.iq.issued_per_cycle::4             628001      2.06%     98.67% # Number of insts issued each cycle
system.cpu0.iq.issued_per_cycle::5             185141      0.61%     99.28% # Number of insts issued each cycle
system.cpu0.iq.issued_per_cycle::6             136339      0.45%     99.73% # Number of insts issued each cycle
system.cpu0.iq.issued_per_cycle::7              46754      0.15%     99.88% # Number of insts issued each cycle
system.cpu0.iq.issued_per_cycle::8              36757      0.12%    100.00% # Number of insts issued each cycle
system.cpu0.iq.issued_per_cycle::overflows            0      0.00%    100.00% # Number of insts issued each cycle
system.cpu0.iq.issued_per_cycle::min_value            0                       # Number of insts issued each cycle
system.cpu0.iq.issued_per_cycle::max_value            8                       # Number of insts issued each cycle
system.cpu0.iq.issued_per_cycle::total       30514180                       # Number of insts issued each cycle
system.cpu0.iq.fu_full::No_OpClass                  0      0.00%      0.00% # attempts to use FU when none available
system.cpu0.iq.fu_full::IntAlu                  18987     71.05%     71.05% # attempts to use FU when none available
system.cpu0.iq.fu_full::IntMult                     0      0.00%     71.05% # attempts to use FU when none available
system.cpu0.iq.fu_full::IntDiv                      0      0.00%     71.05% # attempts to use FU when none available
system.cpu0.iq.fu_full::FloatAdd                 1896      7.09%     78.14% # attempts to use FU when none available
system.cpu0.iq.fu_full::FloatCmp                    0      0.00%     78.14% # attempts to use FU when none available
system.cpu0.iq.fu_full::FloatCvt                    0      0.00%     78.14% # attempts to use FU when none available
system.cpu0.iq.fu_full::FloatMult                   0      0.00%     78.14% # attempts to use FU when none available
system.cpu0.iq.fu_full::FloatMultAcc                0      0.00%     78.14% # attempts to use FU when none available
system.cpu0.iq.fu_full::FloatDiv                    0      0.00%     78.14% # attempts to use FU when none available
system.cpu0.iq.fu_full::FloatMisc                   0      0.00%     78.14% # attempts to use FU when none available
system.cpu0.iq.fu_full::FloatSqrt                   0      0.00%     78.14% # attempts to use FU when none available
system.cpu0.iq.fu_full::SimdAdd                     0      0.00%     78.14% # attempts to use FU when none available
system.cpu0.iq.fu_full::SimdAddAcc                  0      0.00%     78.14% # attempts to use FU when none available
system.cpu0.iq.fu_full::SimdAlu                     0      0.00%     78.14% # attempts to use FU when none available
system.cpu0.iq.fu_full::SimdCmp                     0      0.00%     78.14% # attempts to use FU when none available
system.cpu0.iq.fu_full::SimdCvt                     0      0.00%     78.14% # attempts to use FU when none available
system.cpu0.iq.fu_full::SimdMisc                    0      0.00%     78.14% # attempts to use FU when none available
system.cpu0.iq.fu_full::SimdMult                    0      0.00%     78.14% # attempts to use FU when none available
system.cpu0.iq.fu_full::SimdMultAcc                 0      0.00%     78.14% # attempts to use FU when none available
system.cpu0.iq.fu_full::SimdShift                   0      0.00%     78.14% # attempts to use FU when none available
system.cpu0.iq.fu_full::SimdShiftAcc                0      0.00%     78.14% # attempts to use FU when none available
system.cpu0.iq.fu_full::SimdSqrt                    0      0.00%     78.14% # attempts to use FU when none available
system.cpu0.iq.fu_full::SimdFloatAdd                0      0.00%     78.14% # attempts to use FU when none available
system.cpu0.iq.fu_full::SimdFloatAlu                0      0.00%     78.14% # attempts to use FU when none available
system.cpu0.iq.fu_full::SimdFloatCmp                0      0.00%     78.14% # attempts to use FU when none available
system.cpu0.iq.fu_full::SimdFloatCvt                0      0.00%     78.14% # attempts to use FU when none available
system.cpu0.iq.fu_full::SimdFloatDiv                0      0.00%     78.14% # attempts to use FU when none available
system.cpu0.iq.fu_full::SimdFloatMisc               0      0.00%     78.14% # attempts to use FU when none available
system.cpu0.iq.fu_full::SimdFloatMult               0      0.00%     78.14% # attempts to use FU when none available
system.cpu0.iq.fu_full::SimdFloatMultAcc            0      0.00%     78.14% # attempts to use FU when none available
system.cpu0.iq.fu_full::SimdFloatSqrt               0      0.00%     78.14% # attempts to use FU when none available
system.cpu0.iq.fu_full::MemRead                  5073     18.98%     97.13% # attempts to use FU when none available
system.cpu0.iq.fu_full::MemWrite                  424      1.59%     98.71% # attempts to use FU when none available
system.cpu0.iq.fu_full::FloatMemRead              261      0.98%     99.69% # attempts to use FU when none available
system.cpu0.iq.fu_full::FloatMemWrite              83      0.31%    100.00% # attempts to use FU when none available
system.cpu0.iq.fu_full::IprAccess                   0      0.00%    100.00% # attempts to use FU when none available
system.cpu0.iq.fu_full::InstPrefetch                0      0.00%    100.00% # attempts to use FU when none available
system.cpu0.iq.FU_type_0::No_OpClass            23771      0.23%      0.23% # Type of FU issued
system.cpu0.iq.FU_type_0::IntAlu              8464080     82.49%     82.72% # Type of FU issued
system.cpu0.iq.FU_type_0::IntMult                 920      0.01%     82.73% # Type of FU issued
system.cpu0.iq.FU_type_0::IntDiv                16521      0.16%     82.89% # Type of FU issued
system.cpu0.iq.FU_type_0::FloatAdd              23897      0.23%     83.12% # Type of FU issued
system.cpu0.iq.FU_type_0::FloatCmp                  0      0.00%     83.12% # Type of FU issued
system.cpu0.iq.FU_type_0::FloatCvt                  0      0.00%     83.12% # Type of FU issued
system.cpu0.iq.FU_type_0::FloatMult                 0      0.00%     83.12% # Type of FU issued
system.cpu0.iq.FU_type_0::FloatMultAcc              0      0.00%     83.12% # Type of FU issued
system.cpu0.iq.FU_type_0::FloatDiv                  0      0.00%     83.12% # Type of FU issued
system.cpu0.iq.FU_type_0::FloatMisc                 0      0.00%     83.12% # Type of FU issued
system.cpu0.iq.FU_type_0::FloatSqrt                 0      0.00%     83.12% # Type of FU issued
system.cpu0.iq.FU_type_0::SimdAdd                   0      0.00%     83.12% # Type of FU issued
system.cpu0.iq.FU_type_0::SimdAddAcc                0      0.00%     83.12% # Type of FU issued
system.cpu0.iq.FU_type_0::SimdAlu                   0      0.00%     83.12% # Type of FU issued
system.cpu0.iq.FU_type_0::SimdCmp                   0      0.00%     83.12% # Type of FU issued
system.cpu0.iq.FU_type_0::SimdCvt                   0      0.00%     83.12% # Type of FU issued
system.cpu0.iq.FU_type_0::SimdMisc                  0      0.00%     83.12% # Type of FU issued
system.cpu0.iq.FU_type_0::SimdMult                  0      0.00%     83.12% # Type of FU issued
system.cpu0.iq.FU_type_0::SimdMultAcc               0      0.00%     83.12% # Type of FU issued
system.cpu0.iq.FU_type_0::SimdShift                 0      0.00%     83.12% # Type of FU issued
system.cpu0.iq.FU_type_0::SimdShiftAcc              0      0.00%     83.12% # Type of FU issued
system.cpu0.iq.FU_type_0::SimdSqrt                  0      0.00%     83.12% # Type of FU issued
system.cpu0.iq.FU_type_0::SimdFloatAdd              0      0.00%     83.12% # Type of FU issued
system.cpu0.iq.FU_type_0::SimdFloatAlu              0      0.00%     83.12% # Type of FU issued
system.cpu0.iq.FU_type_0::SimdFloatCmp              0      0.00%     83.12% # Type of FU issued
system.cpu0.iq.FU_type_0::SimdFloatCvt              0      0.00%     83.12% # Type of FU issued
system.cpu0.iq.FU_type_0::SimdFloatDiv              0      0.00%     83.12% # Type of FU issued
system.cpu0.iq.FU_type_0::SimdFloatMisc             0      0.00%     83.12% # Type of FU issued
system.cpu0.iq.FU_type_0::SimdFloatMult             0      0.00%     83.12% # Type of FU issued
system.cpu0.iq.FU_type_0::SimdFloatMultAcc            0      0.00%     83.12% # Type of FU issued
system.cpu0.iq.FU_type_0::SimdFloatSqrt             0      0.00%     83.12% # Type of FU issued
system.cpu0.iq.FU_type_0::MemRead             1646254     16.04%     99.17% # Type of FU issued
system.cpu0.iq.FU_type_0::MemWrite              80166      0.78%     99.95% # Type of FU issued
system.cpu0.iq.FU_type_0::FloatMemRead           4939      0.05%    100.00% # Type of FU issued
system.cpu0.iq.FU_type_0::FloatMemWrite           313      0.00%    100.00% # Type of FU issued
system.cpu0.iq.FU_type_0::IprAccess                 0      0.00%    100.00% # Type of FU issued
system.cpu0.iq.FU_type_0::InstPrefetch              0      0.00%    100.00% # Type of FU issued
system.cpu0.iq.FU_type_0::total              10260861                       # Type of FU issued
system.cpu0.iq.rate                          0.336039                       # Inst issue rate
system.cpu0.iq.fu_busy_cnt                      26724                       # FU busy when requested
system.cpu0.iq.fu_busy_rate                  0.002604                       # FU busy rate (busy events/executed inst)
system.cpu0.iq.int_inst_queue_reads          51011603                       # Number of integer instruction queue reads
system.cpu0.iq.int_inst_queue_writes         22610444                       # Number of integer instruction queue writes
system.cpu0.iq.int_inst_queue_wakeup_accesses      9885397                       # Number of integer instruction queue wakeup accesses
system.cpu0.iq.fp_inst_queue_reads              61155                       # Number of floating instruction queue reads
system.cpu0.iq.fp_inst_queue_writes             57706                       # Number of floating instruction queue writes
system.cpu0.iq.fp_inst_queue_wakeup_accesses        26126                       # Number of floating instruction queue wakeup accesses
system.cpu0.iq.vec_inst_queue_reads                 0                       # Number of vector instruction queue reads
system.cpu0.iq.vec_inst_queue_writes                0                       # Number of vector instruction queue writes
system.cpu0.iq.vec_inst_queue_wakeup_accesses            0                       # Number of vector instruction queue wakeup accesses
system.cpu0.iq.int_alu_accesses              10232389                       # Number of integer alu accesses
system.cpu0.iq.fp_alu_accesses                  31425                       # Number of floating point alu accesses
system.cpu0.iq.vec_alu_accesses                     0                       # Number of vector alu accesses
system.cpu0.iew.lsq.thread0.forwLoads            8119                       # Number of loads that had data forwarded from stores
system.cpu0.iew.lsq.thread0.invAddrLoads            0                       # Number of loads ignored due to an invalid address
system.cpu0.iew.lsq.thread0.squashedLoads      1643918                       # Number of loads squashed
system.cpu0.iew.lsq.thread0.ignoredResponses          239                       # Number of memory responses ignored because the instruction is squashed
system.cpu0.iew.lsq.thread0.memOrderViolation            9                       # Number of memory ordering violations
system.cpu0.iew.lsq.thread0.squashedStores        56804                       # Number of stores squashed
system.cpu0.iew.lsq.thread0.invAddrSwpfs            0                       # Number of software prefetches ignored due to an invalid address
system.cpu0.iew.lsq.thread0.blockedLoads            0                       # Number of blocked loads due to partial load-store forwarding
system.cpu0.iew.lsq.thread0.rescheduledLoads           52                       # Number of loads that were rescheduled
system.cpu0.iew.lsq.thread0.cacheBlocked         5116                       # Number of times an access to memory failed due to the cache being blocked
system.cpu0.iew.iewIdleCycles                       0                       # Number of cycles IEW is idle
system.cpu0.iew.iewSquashCycles                120311                       # Number of cycles IEW is squashing
system.cpu0.iew.iewBlockCycles               21873624                       # Number of cycles IEW is blocking
system.cpu0.iew.iewUnblockCycles               428132                       # Number of cycles IEW is unblocking
system.cpu0.iew.iewDispatchedInsts           14277979                       # Number of instructions dispatched to IQ
system.cpu0.iew.iewDispSquashedInsts             5851                       # Number of squashed instructions skipped by dispatch
system.cpu0.iew.iewDispLoadInsts              2776977                       # Number of dispatched load instructions
system.cpu0.iew.iewDispStoreInsts              105868                       # Number of dispatched store instructions
system.cpu0.iew.iewDispNonSpecInsts              2239                       # Number of dispatched non-speculative instructions
system.cpu0.iew.iewIQFullEvents                 28486                       # Number of times the IQ has become full, causing a stall
system.cpu0.iew.iewLSQFullEvents                44731                       # Number of times the LSQ has become full, causing a stall
system.cpu0.iew.memOrderViolationEvents             9                       # Number of memory order violations
system.cpu0.iew.predictedTakenIncorrect         71061                       # Number of branches that were predicted taken incorrectly
system.cpu0.iew.predictedNotTakenIncorrect        59313                       # Number of branches that were predicted not taken incorrectly
system.cpu0.iew.branchMispredicts              130374                       # Number of branch mispredicts detected at execute
system.cpu0.iew.iewExecutedInsts             10097312                       # Number of executed instructions
system.cpu0.iew.iewExecLoadInsts              1577328                       # Number of load instructions executed
system.cpu0.iew.iewExecSquashedInsts           163546                       # Number of squashed instructions skipped in execute
system.cpu0.iew.exec_swp                            0                       # number of swp insts executed
system.cpu0.iew.exec_nop                            0                       # number of nop insts executed
system.cpu0.iew.exec_refs                     1652775                       # number of memory reference insts executed
system.cpu0.iew.exec_branches                 1267075                       # Number of branches executed
system.cpu0.iew.exec_stores                     75447                       # Number of stores executed
system.cpu0.iew.exec_rate                    0.330683                       # Inst execution rate
system.cpu0.iew.wb_sent                       9935968                       # cumulative count of insts sent to commit
system.cpu0.iew.wb_count                      9911523                       # cumulative count of insts written-back
system.cpu0.iew.wb_producers                  7345956                       # num instructions producing a value
system.cpu0.iew.wb_consumers                 11687838                       # num instructions consuming a value
system.cpu0.iew.wb_rate                      0.324599                       # insts written-back per cycle
system.cpu0.iew.wb_fanout                    0.628513                       # average fanout of values written-back
system.cpu0.commit.commitSquashedInsts        8390884                       # The number of squashed insts skipped by commit
system.cpu0.commit.branchMispredicts           120305                       # The number of times a branch was mispredicted
system.cpu0.commit.committed_per_cycle::samples     29356077                       # Number of insts commited each cycle
system.cpu0.commit.committed_per_cycle::mean     0.200566                       # Number of insts commited each cycle
system.cpu0.commit.committed_per_cycle::stdev     0.813577                       # Number of insts commited each cycle
system.cpu0.commit.committed_per_cycle::underflows            0      0.00%      0.00% # Number of insts commited each cycle
system.cpu0.commit.committed_per_cycle::0     26809790     91.33%     91.33% # Number of insts commited each cycle
system.cpu0.commit.committed_per_cycle::1      1168225      3.98%     95.31% # Number of insts commited each cycle
system.cpu0.commit.committed_per_cycle::2       279133      0.95%     96.26% # Number of insts commited each cycle
system.cpu0.commit.committed_per_cycle::3       771734      2.63%     98.89% # Number of insts commited each cycle
system.cpu0.commit.committed_per_cycle::4       125458      0.43%     99.31% # Number of insts commited each cycle
system.cpu0.commit.committed_per_cycle::5        81478      0.28%     99.59% # Number of insts commited each cycle
system.cpu0.commit.committed_per_cycle::6         9053      0.03%     99.62% # Number of insts commited each cycle
system.cpu0.commit.committed_per_cycle::7         7054      0.02%     99.65% # Number of insts commited each cycle
system.cpu0.commit.committed_per_cycle::8       104152      0.35%    100.00% # Number of insts commited each cycle
system.cpu0.commit.committed_per_cycle::overflows            0      0.00%    100.00% # Number of insts commited each cycle
system.cpu0.commit.committed_per_cycle::min_value            0                       # Number of insts commited each cycle
system.cpu0.commit.committed_per_cycle::max_value            8                       # Number of insts commited each cycle
system.cpu0.commit.committed_per_cycle::total     29356077                       # Number of insts commited each cycle
system.cpu0.commit.committedInsts             2946942                       # Number of instructions committed
system.cpu0.commit.committedOps               5887827                       # Number of ops (including micro ops) committed
system.cpu0.commit.swp_count                        0                       # Number of s/w prefetches committed
system.cpu0.commit.refs                       1182125                       # Number of memory references committed
system.cpu0.commit.loads                      1133061                       # Number of loads committed
system.cpu0.commit.membars                          0                       # Number of memory barriers committed
system.cpu0.commit.branches                   1078072                       # Number of branches committed
system.cpu0.commit.vec_insts                        0                       # Number of committed Vector instructions.
system.cpu0.commit.fp_insts                     19628                       # Number of committed floating point instructions.
system.cpu0.commit.int_insts                  5867983                       # Number of committed integer instructions.
system.cpu0.commit.function_calls                8650                       # Number of function calls committed.
system.cpu0.commit.op_class_0::No_OpClass         5920      0.10%      0.10% # Class of committed instruction
system.cpu0.commit.op_class_0::IntAlu         4668322     79.29%     79.39% # Class of committed instruction
system.cpu0.commit.op_class_0::IntMult            346      0.01%     79.39% # Class of committed instruction
system.cpu0.commit.op_class_0::IntDiv           14338      0.24%     79.64% # Class of committed instruction
system.cpu0.commit.op_class_0::FloatAdd         16776      0.28%     79.92% # Class of committed instruction
system.cpu0.commit.op_class_0::FloatCmp             0      0.00%     79.92% # Class of committed instruction
system.cpu0.commit.op_class_0::FloatCvt             0      0.00%     79.92% # Class of committed instruction
system.cpu0.commit.op_class_0::FloatMult            0      0.00%     79.92% # Class of committed instruction
system.cpu0.commit.op_class_0::FloatMultAcc            0      0.00%     79.92% # Class of committed instruction
system.cpu0.commit.op_class_0::FloatDiv             0      0.00%     79.92% # Class of committed instruction
system.cpu0.commit.op_class_0::FloatMisc            0      0.00%     79.92% # Class of committed instruction
system.cpu0.commit.op_class_0::FloatSqrt            0      0.00%     79.92% # Class of committed instruction
system.cpu0.commit.op_class_0::SimdAdd              0      0.00%     79.92% # Class of committed instruction
system.cpu0.commit.op_class_0::SimdAddAcc            0      0.00%     79.92% # Class of committed instruction
system.cpu0.commit.op_class_0::SimdAlu              0      0.00%     79.92% # Class of committed instruction
system.cpu0.commit.op_class_0::SimdCmp              0      0.00%     79.92% # Class of committed instruction
system.cpu0.commit.op_class_0::SimdCvt              0      0.00%     79.92% # Class of committed instruction
system.cpu0.commit.op_class_0::SimdMisc             0      0.00%     79.92% # Class of committed instruction
system.cpu0.commit.op_class_0::SimdMult             0      0.00%     79.92% # Class of committed instruction
system.cpu0.commit.op_class_0::SimdMultAcc            0      0.00%     79.92% # Class of committed instruction
system.cpu0.commit.op_class_0::SimdShift            0      0.00%     79.92% # Class of committed instruction
system.cpu0.commit.op_class_0::SimdShiftAcc            0      0.00%     79.92% # Class of committed instruction
system.cpu0.commit.op_class_0::SimdSqrt             0      0.00%     79.92% # Class of committed instruction
system.cpu0.commit.op_class_0::SimdFloatAdd            0      0.00%     79.92% # Class of committed instruction
system.cpu0.commit.op_class_0::SimdFloatAlu            0      0.00%     79.92% # Class of committed instruction
system.cpu0.commit.op_class_0::SimdFloatCmp            0      0.00%     79.92% # Class of committed instruction
system.cpu0.commit.op_class_0::SimdFloatCvt            0      0.00%     79.92% # Class of committed instruction
system.cpu0.commit.op_class_0::SimdFloatDiv            0      0.00%     79.92% # Class of committed instruction
system.cpu0.commit.op_class_0::SimdFloatMisc            0      0.00%     79.92% # Class of committed instruction
system.cpu0.commit.op_class_0::SimdFloatMult            0      0.00%     79.92% # Class of committed instruction
system.cpu0.commit.op_class_0::SimdFloatMultAcc            0      0.00%     79.92% # Class of committed instruction
system.cpu0.commit.op_class_0::SimdFloatSqrt            0      0.00%     79.92% # Class of committed instruction
system.cpu0.commit.op_class_0::MemRead        1130209     19.20%     99.12% # Class of committed instruction
system.cpu0.commit.op_class_0::MemWrite         49064      0.83%     99.95% # Class of committed instruction
system.cpu0.commit.op_class_0::FloatMemRead         2852      0.05%    100.00% # Class of committed instruction
system.cpu0.commit.op_class_0::FloatMemWrite            0      0.00%    100.00% # Class of committed instruction
system.cpu0.commit.op_class_0::IprAccess            0      0.00%    100.00% # Class of committed instruction
system.cpu0.commit.op_class_0::InstPrefetch            0      0.00%    100.00% # Class of committed instruction
system.cpu0.commit.op_class_0::total          5887827                       # Class of committed instruction
system.cpu0.commit.bw_lim_events               104152                       # number cycles where commit BW limit reached
system.cpu0.rob.rob_reads                    43530636                       # The number of ROB reads
system.cpu0.rob.rob_writes                   29717912                       # The number of ROB writes
system.cpu0.timesIdled                            256                       # Number of times that the entire CPU went into an idle state and unscheduled itself
system.cpu0.idleCycles                          20508                       # Total number of cycles that the CPU has spent unscheduled due to idling
system.cpu0.committedInsts                    2946942                       # Number of Instructions Simulated
system.cpu0.committedOps                      5887827                       # Number of Ops (including micro ops) Simulated
system.cpu0.cpi                             10.361483                       # CPI: Cycles Per Instruction
system.cpu0.cpi_total                       10.361483                       # CPI: Total CPI of All Threads
system.cpu0.ipc                              0.096511                       # IPC: Instructions Per Cycle
system.cpu0.ipc_total                        0.096511                       # IPC: Total IPC of All Threads
system.cpu0.int_regfile_reads                 9912210                       # number of integer regfile reads
system.cpu0.int_regfile_writes                8580487                       # number of integer regfile writes
system.cpu0.fp_regfile_reads                    46415                       # number of floating regfile reads
system.cpu0.fp_regfile_writes                   23154                       # number of floating regfile writes
system.cpu0.cc_regfile_reads                  6826890                       # number of cc regfile reads
system.cpu0.cc_regfile_writes                 2778060                       # number of cc regfile writes
system.cpu0.misc_regfile_reads                5461594                       # number of misc regfile reads
system.cpu0.dcache.tags.pwrStateResidencyTicks::UNDEFINED  15267344125                       # Cumulative time (in ticks) in various power states
system.cpu0.dcache.tags.replacements           606811                       # number of replacements
system.cpu0.dcache.tags.tagsinuse                 512                       # Cycle average of tags in use
system.cpu0.dcache.tags.total_refs             584696                       # Total number of references to valid blocks.
system.cpu0.dcache.tags.sampled_refs           606811                       # Sample count of references to valid blocks.
system.cpu0.dcache.tags.avg_refs             0.963555                       # Average number of references to valid blocks.
system.cpu0.dcache.tags.warmup_cycle                0                       # Cycle when the warmup percentage was hit.
system.cpu0.dcache.tags.occ_blocks::cpu0.data          512                       # Average occupied blocks per requestor
system.cpu0.dcache.tags.occ_percent::cpu0.data            1                       # Average percentage of cache occupancy
system.cpu0.dcache.tags.occ_percent::total            1                       # Average percentage of cache occupancy
system.cpu0.dcache.tags.occ_task_id_blocks::1024          512                       # Occupied blocks per task id
system.cpu0.dcache.tags.age_task_id_blocks_1024::0          144                       # Occupied blocks per task id
system.cpu0.dcache.tags.age_task_id_blocks_1024::1          363                       # Occupied blocks per task id
system.cpu0.dcache.tags.age_task_id_blocks_1024::2            5                       # Occupied blocks per task id
system.cpu0.dcache.tags.occ_task_id_percent::1024            1                       # Percentage of cache occupancy per task id
system.cpu0.dcache.tags.tag_accesses          7042195                       # Number of tag accesses
system.cpu0.dcache.tags.data_accesses         7042195                       # Number of data accesses
system.cpu0.dcache.pwrStateResidencyTicks::UNDEFINED  15267344125                       # Cumulative time (in ticks) in various power states
system.cpu0.dcache.ReadReq_hits::cpu0.data       538834                       # number of ReadReq hits
system.cpu0.dcache.ReadReq_hits::total         538834                       # number of ReadReq hits
system.cpu0.dcache.WriteReq_hits::cpu0.data        46869                       # number of WriteReq hits
system.cpu0.dcache.WriteReq_hits::total         46869                       # number of WriteReq hits
system.cpu0.dcache.demand_hits::cpu0.data       585703                       # number of demand (read+write) hits
system.cpu0.dcache.demand_hits::total          585703                       # number of demand (read+write) hits
system.cpu0.dcache.overall_hits::cpu0.data       585703                       # number of overall hits
system.cpu0.dcache.overall_hits::total         585703                       # number of overall hits
system.cpu0.dcache.ReadReq_misses::cpu0.data      1020948                       # number of ReadReq misses
system.cpu0.dcache.ReadReq_misses::total      1020948                       # number of ReadReq misses
system.cpu0.dcache.WriteReq_misses::cpu0.data         2195                       # number of WriteReq misses
system.cpu0.dcache.WriteReq_misses::total         2195                       # number of WriteReq misses
system.cpu0.dcache.demand_misses::cpu0.data      1023143                       # number of demand (read+write) misses
system.cpu0.dcache.demand_misses::total       1023143                       # number of demand (read+write) misses
system.cpu0.dcache.overall_misses::cpu0.data      1023143                       # number of overall misses
system.cpu0.dcache.overall_misses::total      1023143                       # number of overall misses
system.cpu0.dcache.ReadReq_miss_latency::cpu0.data  32602723000                       # number of ReadReq miss cycles
system.cpu0.dcache.ReadReq_miss_latency::total  32602723000                       # number of ReadReq miss cycles
system.cpu0.dcache.WriteReq_miss_latency::cpu0.data     79380494                       # number of WriteReq miss cycles
system.cpu0.dcache.WriteReq_miss_latency::total     79380494                       # number of WriteReq miss cycles
system.cpu0.dcache.demand_miss_latency::cpu0.data  32682103494                       # number of demand (read+write) miss cycles
system.cpu0.dcache.demand_miss_latency::total  32682103494                       # number of demand (read+write) miss cycles
system.cpu0.dcache.overall_miss_latency::cpu0.data  32682103494                       # number of overall miss cycles
system.cpu0.dcache.overall_miss_latency::total  32682103494                       # number of overall miss cycles
system.cpu0.dcache.ReadReq_accesses::cpu0.data      1559782                       # number of ReadReq accesses(hits+misses)
system.cpu0.dcache.ReadReq_accesses::total      1559782                       # number of ReadReq accesses(hits+misses)
system.cpu0.dcache.WriteReq_accesses::cpu0.data        49064                       # number of WriteReq accesses(hits+misses)
system.cpu0.dcache.WriteReq_accesses::total        49064                       # number of WriteReq accesses(hits+misses)
system.cpu0.dcache.demand_accesses::cpu0.data      1608846                       # number of demand (read+write) accesses
system.cpu0.dcache.demand_accesses::total      1608846                       # number of demand (read+write) accesses
system.cpu0.dcache.overall_accesses::cpu0.data      1608846                       # number of overall (read+write) accesses
system.cpu0.dcache.overall_accesses::total      1608846                       # number of overall (read+write) accesses
system.cpu0.dcache.ReadReq_miss_rate::cpu0.data     0.654545                       # miss rate for ReadReq accesses
system.cpu0.dcache.ReadReq_miss_rate::total     0.654545                       # miss rate for ReadReq accesses
system.cpu0.dcache.WriteReq_miss_rate::cpu0.data     0.044737                       # miss rate for WriteReq accesses
[...]
system.l2.demand_miss_rate::cpu0.data        0.204195                       # miss rate for demand accesses
system.l2.demand_miss_rate::total            0.204196                       # miss rate for demand accesses
system.l2.overall_miss_rate::cpu0.inst       0.250000                       # miss rate for overall accesses
system.l2.overall_miss_rate::cpu0.data       0.204195                       # miss rate for overall accesses
system.l2.overall_miss_rate::total           0.204196                       # miss rate for overall accesses
system.l2.ReadExReq_avg_miss_latency::cpu0.data 113969.008264                       # average ReadExReq miss latency
system.l2.ReadExReq_avg_miss_latency::total 113969.008264                       # average ReadExReq miss latency
system.l2.ReadCleanReq_avg_miss_latency::cpu0.inst       103750                       # average ReadCleanReq miss latency
system.l2.ReadCleanReq_avg_miss_latency::total       103750                       # average ReadCleanReq miss latency
system.l2.ReadSharedReq_avg_miss_latency::cpu0.data 97522.896681                       # average ReadSharedReq miss latency
system.l2.ReadSharedReq_avg_miss_latency::total 97522.896681                       # average ReadSharedReq miss latency
system.l2.demand_avg_miss_latency::cpu0.inst       103750                       # average overall miss latency
system.l2.demand_avg_miss_latency::cpu0.data 97587.137231                       # average overall miss latency
system.l2.demand_avg_miss_latency::total 97587.236704                       # average overall miss latency
system.l2.overall_avg_miss_latency::cpu0.inst       103750                       # average overall miss latency
system.l2.overall_avg_miss_latency::cpu0.data 97587.137231                       # average overall miss latency
system.l2.overall_avg_miss_latency::total 97587.236704                       # average overall miss latency
system.l2.blocked_cycles::no_mshrs                  0                       # number of cycles access was blocked
system.l2.blocked_cycles::no_targets                0                       # number of cycles access was blocked
system.l2.blocked::no_mshrs                         0                       # number of cycles access was blocked
system.l2.blocked::no_targets                       0                       # number of cycles access was blocked
system.l2.avg_blocked_cycles::no_mshrs            nan                       # average number of cycles each access was blocked
system.l2.avg_blocked_cycles::no_targets          nan                       # average number of cycles each access was blocked
system.l2.writebacks::writebacks                  535                       # number of writebacks
system.l2.writebacks::total                       535                       # number of writebacks
system.l2.ReadExReq_mshr_misses::cpu0.data          484                       # number of ReadExReq MSHR misses
system.l2.ReadExReq_mshr_misses::total            484                       # number of ReadExReq MSHR misses
system.l2.ReadCleanReq_mshr_misses::cpu0.inst            2                       # number of ReadCleanReq MSHR misses
system.l2.ReadCleanReq_mshr_misses::total            2                       # number of ReadCleanReq MSHR misses
system.l2.ReadSharedReq_mshr_misses::cpu0.data       123424                       # number of ReadSharedReq MSHR misses
system.l2.ReadSharedReq_mshr_misses::total       123424                       # number of ReadSharedReq MSHR misses
system.l2.demand_mshr_misses::cpu0.inst             2                       # number of demand (read+write) MSHR misses
system.l2.demand_mshr_misses::cpu0.data        123908                       # number of demand (read+write) MSHR misses
system.l2.demand_mshr_misses::total            123910                       # number of demand (read+write) MSHR misses
system.l2.overall_mshr_misses::cpu0.inst            2                       # number of overall MSHR misses
system.l2.overall_mshr_misses::cpu0.data       123908                       # number of overall MSHR misses
system.l2.overall_mshr_misses::total           123910                       # number of overall MSHR misses
system.l2.ReadExReq_mshr_miss_latency::cpu0.data     50321000                       # number of ReadExReq MSHR miss cycles
system.l2.ReadExReq_mshr_miss_latency::total     50321000                       # number of ReadExReq MSHR miss cycles
system.l2.ReadCleanReq_mshr_miss_latency::cpu0.inst       187500                       # number of ReadCleanReq MSHR miss cycles
system.l2.ReadCleanReq_mshr_miss_latency::total       187500                       # number of ReadCleanReq MSHR miss cycles
system.l2.ReadSharedReq_mshr_miss_latency::cpu0.data  10802426000                       # number of ReadSharedReq MSHR miss cycles
system.l2.ReadSharedReq_mshr_miss_latency::total  10802426000                       # number of ReadSharedReq MSHR miss cycles
system.l2.demand_mshr_miss_latency::cpu0.inst       187500                       # number of demand (read+write) MSHR miss cycles
system.l2.demand_mshr_miss_latency::cpu0.data  10852747000                       # number of demand (read+write) MSHR miss cycles
system.l2.demand_mshr_miss_latency::total  10852934500                       # number of demand (read+write) MSHR miss cycles
system.l2.overall_mshr_miss_latency::cpu0.inst       187500                       # number of overall MSHR miss cycles
system.l2.overall_mshr_miss_latency::cpu0.data  10852747000                       # number of overall MSHR miss cycles
system.l2.overall_mshr_miss_latency::total  10852934500                       # number of overall MSHR miss cycles
system.l2.ReadExReq_mshr_miss_rate::cpu0.data     0.221207                       # mshr miss rate for ReadExReq accesses
system.l2.ReadExReq_mshr_miss_rate::total     0.221207                       # mshr miss rate for ReadExReq accesses
system.l2.ReadCleanReq_mshr_miss_rate::cpu0.inst     0.250000                       # mshr miss rate for ReadCleanReq accesses
system.l2.ReadCleanReq_mshr_miss_rate::total     0.250000                       # mshr miss rate for ReadCleanReq accesses
system.l2.ReadSharedReq_mshr_miss_rate::cpu0.data     0.204134                       # mshr miss rate for ReadSharedReq accesses
system.l2.ReadSharedReq_mshr_miss_rate::total     0.204134                       # mshr miss rate for ReadSharedReq accesses
system.l2.demand_mshr_miss_rate::cpu0.inst     0.250000                       # mshr miss rate for demand accesses
system.l2.demand_mshr_miss_rate::cpu0.data     0.204195                       # mshr miss rate for demand accesses
system.l2.demand_mshr_miss_rate::total       0.204196                       # mshr miss rate for demand accesses
system.l2.overall_mshr_miss_rate::cpu0.inst     0.250000                       # mshr miss rate for overall accesses
system.l2.overall_mshr_miss_rate::cpu0.data     0.204195                       # mshr miss rate for overall accesses
system.l2.overall_mshr_miss_rate::total      0.204196                       # mshr miss rate for overall accesses
system.l2.ReadExReq_avg_mshr_miss_latency::cpu0.data 103969.008264                       # average ReadExReq mshr miss latency
system.l2.ReadExReq_avg_mshr_miss_latency::total 103969.008264                       # average ReadExReq mshr miss latency
system.l2.ReadCleanReq_avg_mshr_miss_latency::cpu0.inst        93750                       # average ReadCleanReq mshr miss latency
system.l2.ReadCleanReq_avg_mshr_miss_latency::total        93750                       # average ReadCleanReq mshr miss latency
system.l2.ReadSharedReq_avg_mshr_miss_latency::cpu0.data 87522.896681                       # average ReadSharedReq mshr miss latency
system.l2.ReadSharedReq_avg_mshr_miss_latency::total 87522.896681                       # average ReadSharedReq mshr miss latency
system.l2.demand_avg_mshr_miss_latency::cpu0.inst        93750                       # average overall mshr miss latency
system.l2.demand_avg_mshr_miss_latency::cpu0.data 87587.137231                       # average overall mshr miss latency
system.l2.demand_avg_mshr_miss_latency::total 87587.236704                       # average overall mshr miss latency
system.l2.overall_avg_mshr_miss_latency::cpu0.inst        93750                       # average overall mshr miss latency
system.l2.overall_avg_mshr_miss_latency::cpu0.data 87587.137231                       # average overall mshr miss latency
system.l2.overall_avg_mshr_miss_latency::total 87587.236704                       # average overall mshr miss latency
system.membus.snoop_filter.tot_requests        247817                       # Total number of requests made to the snoop filter.
system.membus.snoop_filter.hit_single_requests       123907                       # Number of requests hitting in the snoop filter with a single holder of the requested data.
system.membus.snoop_filter.hit_multi_requests            0                       # Number of requests hitting in the snoop filter with multiple (>1) holders of the requested data.
system.membus.snoop_filter.tot_snoops               0                       # Total number of snoops made to the snoop filter.
system.membus.snoop_filter.hit_single_snoops            0                       # Number of snoops hitting in the snoop filter with a single holder of the requested data.
system.membus.snoop_filter.hit_multi_snoops            0                       # Number of snoops hitting in the snoop filter with multiple (>1) holders of the requested data.
system.membus.pwrStateResidencyTicks::UNDEFINED  15267344125                       # Cumulative time (in ticks) in various power states
system.membus.trans_dist::ReadResp             123426                       # Transaction distribution
system.membus.trans_dist::WritebackDirty          535                       # Transaction distribution
system.membus.trans_dist::CleanEvict           123372                       # Transaction distribution
system.membus.trans_dist::ReadExReq               484                       # Transaction distribution
system.membus.trans_dist::ReadExResp              484                       # Transaction distribution
system.membus.trans_dist::ReadSharedReq        123426                       # Transaction distribution
system.membus.pkt_count_system.l2.mem_side::system.mem_ctrls.port       371727                       # Packet count per connected master and slave (bytes)
system.membus.pkt_count_system.l2.mem_side::total       371727                       # Packet count per connected master and slave (bytes)
system.membus.pkt_count::total                 371727                       # Packet count per connected master and slave (bytes)
system.membus.pkt_size_system.l2.mem_side::system.mem_ctrls.port      7964480                       # Cumulative packet size per connected master and slave (bytes)
system.membus.pkt_size_system.l2.mem_side::total      7964480                       # Cumulative packet size per connected master and slave (bytes)
system.membus.pkt_size::total                 7964480                       # Cumulative packet size per connected master and slave (bytes)
system.membus.snoops                                0                       # Total snoops (count)
system.membus.snoopTraffic                          0                       # Total snoop traffic (bytes)
system.membus.snoop_fanout::samples            123910                       # Request fanout histogram
system.membus.snoop_fanout::mean                    0                       # Request fanout histogram
system.membus.snoop_fanout::stdev                   0                       # Request fanout histogram
system.membus.snoop_fanout::underflows              0      0.00%      0.00% # Request fanout histogram
system.membus.snoop_fanout::0                  123910    100.00%    100.00% # Request fanout histogram
system.membus.snoop_fanout::1                       0      0.00%    100.00% # Request fanout histogram
system.membus.snoop_fanout::overflows               0      0.00%    100.00% # Request fanout histogram
system.membus.snoop_fanout::min_value               0                       # Request fanout histogram
system.membus.snoop_fanout::max_value               0                       # Request fanout histogram
system.membus.snoop_fanout::total              123910                       # Request fanout histogram
system.membus.reqLayer12.occupancy          287927500                       # Layer occupancy (ticks)
system.membus.reqLayer12.utilization              1.9                       # Layer utilization (%)
system.membus.respLayer1.occupancy          679305750                       # Layer occupancy (ticks)
system.membus.respLayer1.utilization              4.4                       # Layer utilization (%)
system.tol2bus.snoop_filter.tot_requests      1213638                       # Total number of requests made to the snoop filter.
system.tol2bus.snoop_filter.hit_single_requests       606821                       # Number of requests hitting in the snoop filter with a single holder of the requested data.
system.tol2bus.snoop_filter.hit_multi_requests         1158                       # Number of requests hitting in the snoop filter with multiple (>1) holders of the requested data.
system.tol2bus.snoop_filter.tot_snoops              7                       # Total number of snoops made to the snoop filter.
system.tol2bus.snoop_filter.hit_single_snoops            7                       # Number of snoops hitting in the snoop filter with a single holder of the requested data.
system.tol2bus.snoop_filter.hit_multi_snoops            0                       # Number of snoops hitting in the snoop filter with multiple (>1) holders of the requested data.
system.tol2bus.pwrStateResidencyTicks::UNDEFINED  15267344125                       # Cumulative time (in ticks) in various power states
system.tol2bus.trans_dist::ReadResp            604631                       # Transaction distribution
system.tol2bus.trans_dist::WritebackDirty        11077                       # Transaction distribution
system.tol2bus.trans_dist::WritebackClean            8                       # Transaction distribution
system.tol2bus.trans_dist::CleanEvict          719648                       # Transaction distribution
system.tol2bus.trans_dist::ReadExReq             2188                       # Transaction distribution
system.tol2bus.trans_dist::ReadExResp            2188                       # Transaction distribution
system.tol2bus.trans_dist::ReadCleanReq             8                       # Transaction distribution
system.tol2bus.trans_dist::ReadSharedReq       604623                       # Transaction distribution
system.tol2bus.pkt_count_system.cpu0.icache.mem_side::system.l2.cpu_side           24                       # Packet count per connected master and slave (bytes)
system.tol2bus.pkt_count_system.cpu0.dcache.mem_side::system.l2.cpu_side      1820433                       # Packet count per connected master and slave (bytes)
system.tol2bus.pkt_count::total               1820457                       # Packet count per connected master and slave (bytes)
system.tol2bus.pkt_size_system.cpu0.icache.mem_side::system.l2.cpu_side         1024                       # Cumulative packet size per connected master and slave (bytes)
system.tol2bus.pkt_size_system.cpu0.dcache.mem_side::system.l2.cpu_side     39510592                       # Cumulative packet size per connected master and slave (bytes)
system.tol2bus.pkt_size::total               39511616                       # Cumulative packet size per connected master and slave (bytes)
system.tol2bus.snoops                          123914                       # Total snoops (count)
system.tol2bus.snoopTraffic                     34240                       # Total snoop traffic (bytes)
system.tol2bus.snoop_fanout::samples           730733                       # Request fanout histogram
system.tol2bus.snoop_fanout::mean            0.001597                       # Request fanout histogram
system.tol2bus.snoop_fanout::stdev           0.039931                       # Request fanout histogram
system.tol2bus.snoop_fanout::underflows             0      0.00%      0.00% # Request fanout histogram
system.tol2bus.snoop_fanout::0                 729566     99.84%     99.84% # Request fanout histogram
system.tol2bus.snoop_fanout::1                   1167      0.16%    100.00% # Request fanout histogram
system.tol2bus.snoop_fanout::2                      0      0.00%    100.00% # Request fanout histogram
system.tol2bus.snoop_fanout::3                      0      0.00%    100.00% # Request fanout histogram
system.tol2bus.snoop_fanout::4                      0      0.00%    100.00% # Request fanout histogram
system.tol2bus.snoop_fanout::5                      0      0.00%    100.00% # Request fanout histogram
system.tol2bus.snoop_fanout::6                      0      0.00%    100.00% # Request fanout histogram
system.tol2bus.snoop_fanout::7                      0      0.00%    100.00% # Request fanout histogram
system.tol2bus.snoop_fanout::8                      0      0.00%    100.00% # Request fanout histogram
system.tol2bus.snoop_fanout::9                      0      0.00%    100.00% # Request fanout histogram
system.tol2bus.snoop_fanout::10                     0      0.00%    100.00% # Request fanout histogram
system.tol2bus.snoop_fanout::11                     0      0.00%    100.00% # Request fanout histogram
system.tol2bus.snoop_fanout::12                     0      0.00%    100.00% # Request fanout histogram
system.tol2bus.snoop_fanout::13                     0      0.00%    100.00% # Request fanout histogram
system.tol2bus.snoop_fanout::14                     0      0.00%    100.00% # Request fanout histogram
system.tol2bus.snoop_fanout::15                     0      0.00%    100.00% # Request fanout histogram
system.tol2bus.snoop_fanout::16                     0      0.00%    100.00% # Request fanout histogram
system.tol2bus.snoop_fanout::17                     0      0.00%    100.00% # Request fanout histogram
system.tol2bus.snoop_fanout::18                     0      0.00%    100.00% # Request fanout histogram
system.tol2bus.snoop_fanout::19                     0      0.00%    100.00% # Request fanout histogram
system.tol2bus.snoop_fanout::20                     0      0.00%    100.00% # Request fanout histogram
system.tol2bus.snoop_fanout::21                     0      0.00%    100.00% # Request fanout histogram
system.tol2bus.snoop_fanout::22                     0      0.00%    100.00% # Request fanout histogram
system.tol2bus.snoop_fanout::23                     0      0.00%    100.00% # Request fanout histogram
system.tol2bus.snoop_fanout::24                     0      0.00%    100.00% # Request fanout histogram
system.tol2bus.snoop_fanout::overflows              0      0.00%    100.00% # Request fanout histogram
system.tol2bus.snoop_fanout::min_value              0                       # Request fanout histogram
system.tol2bus.snoop_fanout::max_value              1                       # Request fanout histogram
system.tol2bus.snoop_fanout::total             730733                       # Request fanout histogram
system.tol2bus.reqLayer0.occupancy          617369000                       # Layer occupancy (ticks)
system.tol2bus.reqLayer0.utilization              4.0                       # Layer utilization (%)
system.tol2bus.respLayer0.occupancy             12499                       # Layer occupancy (ticks)
system.tol2bus.respLayer0.utilization             0.0                       # Layer utilization (%)
system.tol2bus.respLayer1.occupancy         910216500                       # Layer occupancy (ticks)
system.tol2bus.respLayer1.utilization             6.0                       # Layer utilization (%)

---------- End Simulation Statistics   ----------
