
---------- Begin Simulation Statistics ----------
sim_seconds                                  0.015267                       # Number of seconds simulated
sim_ticks                                 15267344125                       # Number of ticks simulated
final_tick                               4549668549250                       # Number of ticks from beginning of simulation (restored from checkpoints and never reset)
sim_freq                                 1000000000000                       # Frequency of simulated ticks
host_inst_rate                               21011130                       # Simulator instruction rate (inst/s)
host_op_rate                                 39227901                       # Simulator op (including micro ops) rate (op/s)
host_tick_rate                               52214331                       # Simulator tick rate (ticks/s)
host_mem_usage                                3428876                       # Number of bytes of host memory used
host_seconds                                   292.40                       # Real time elapsed on the host
sim_insts                                  6143603237                       # Number of instructions simulated
sim_ops                                   11470143144                       # Number of ops (including micro ops) simulated
system.voltage_domain.voltage                       1                       # Voltage in Volts
system.clk_domain.clock                          1000                       # Clock period in ticks
system.mem_ctrls.pwrStateResidencyTicks::UNDEFINED  15267344125                       # Cumulative time (in ticks) in various power states
system.mem_ctrls.bytes_read::cpu0.inst          38080                       # Number of bytes read from this memory
system.mem_ctrls.bytes_read::cpu0.data        3903424                       # Number of bytes read from this memory
system.mem_ctrls.bytes_read::total            3941504                       # Number of bytes read from this memory
system.mem_ctrls.bytes_inst_read::cpu0.inst        38080                       # Number of instructions bytes read from this memory
system.mem_ctrls.bytes_inst_read::total         38080                       # Number of instructions bytes read from this memory
system.mem_ctrls.bytes_written::writebacks       605632                       # Number of bytes written to this memory
system.mem_ctrls.bytes_written::total          605632                       # Number of bytes written to this memory
system.mem_ctrls.num_reads::cpu0.inst             595                       # Number of read requests responded to by this memory
system.mem_ctrls.num_reads::cpu0.data           60991                       # Number of read requests responded to by this memory
system.mem_ctrls.num_reads::total               61586                       # Number of read requests responded to by this memory
system.mem_ctrls.num_writes::writebacks          9463                       # Number of write requests responded to by this memory
system.mem_ctrls.num_writes::total               9463                       # Number of write requests responded to by this memory
system.mem_ctrls.bw_read::cpu0.inst           2494212                       # Total read bandwidth from this memory (bytes/s)
system.mem_ctrls.bw_read::cpu0.data         255671449                       # Total read bandwidth from this memory (bytes/s)
system.mem_ctrls.bw_read::total             258165662                       # Total read bandwidth from this memory (bytes/s)
system.mem_ctrls.bw_inst_read::cpu0.inst      2494212                       # Instruction read bandwidth from this memory (bytes/s)
system.mem_ctrls.bw_inst_read::total          2494212                       # Instruction read bandwidth from this memory (bytes/s)
system.mem_ctrls.bw_write::writebacks        39668458                       # Write bandwidth from this memory (bytes/s)
system.mem_ctrls.bw_write::total             39668458                       # Write bandwidth from this memory (bytes/s)
system.mem_ctrls.bw_total::writebacks        39668458                       # Total bandwidth to/from this memory (bytes/s)
system.mem_ctrls.bw_total::cpu0.inst          2494212                       # Total bandwidth to/from this memory (bytes/s)
system.mem_ctrls.bw_total::cpu0.data        255671449                       # Total bandwidth to/from this memory (bytes/s)
system.mem_ctrls.bw_total::total            297834120                       # Total bandwidth to/from this memory (bytes/s)
system.mem_ctrls.readReqs                       61586                       # Number of read requests accepted
system.mem_ctrls.writeReqs                       9463                       # Number of write requests accepted
system.mem_ctrls.readBursts                     61586                       # Number of DRAM read bursts, including those serviced by the write queue
system.mem_ctrls.writeBursts                     9463                       # Number of DRAM write bursts, including those merged in the write queue
system.mem_ctrls.bytesReadDRAM                3941504                       # Total number of bytes read from DRAM
system.mem_ctrls.bytesReadWrQ                       0                       # Total number of bytes read from write queue
system.mem_ctrls.bytesWritten                  605184                       # Total number of bytes written to DRAM
system.mem_ctrls.bytesReadSys                 3941504                       # Total read bytes from the system interface side
system.mem_ctrls.bytesWrittenSys               605632                       # Total written bytes from the system interface side
system.mem_ctrls.servicedByWrQ                      0                       # Number of DRAM read bursts serviced by the write queue
system.mem_ctrls.mergedWrBursts                     0                       # Number of DRAM write bursts merged with an existing one
system.mem_ctrls.neitherReadNorWriteReqs            0                       # Number of requests that are neither read nor write
system.mem_ctrls.perBankRdBursts::0              3663                       # Per bank write bursts
system.mem_ctrls.perBankRdBursts::1              3863                       # Per bank write bursts
system.mem_ctrls.perBankRdBursts::2              3937                       # Per bank write bursts
system.mem_ctrls.perBankRdBursts::3              3771                       # Per bank write bursts
system.mem_ctrls.perBankRdBursts::4              3825                       # Per bank write bursts
system.mem_ctrls.perBankRdBursts::5              3895                       # Per bank write bursts
system.mem_ctrls.perBankRdBursts::6              3876                       # Per bank write bursts
system.mem_ctrls.perBankRdBursts::7              3997                       # Per bank write bursts
system.mem_ctrls.perBankRdBursts::8              4076                       # Per bank write bursts
system.mem_ctrls.perBankRdBursts::9              3903                       # Per bank write bursts
system.mem_ctrls.perBankRdBursts::10             3904                       # Per bank write bursts
system.mem_ctrls.perBankRdBursts::11             3860                       # Per bank write bursts
system.mem_ctrls.perBankRdBursts::12             3792                       # Per bank write bursts
system.mem_ctrls.perBankRdBursts::13             3758                       # Per bank write bursts
system.mem_ctrls.perBankRdBursts::14             3825                       # Per bank write bursts
system.mem_ctrls.perBankRdBursts::15             3641                       # Per bank write bursts
system.mem_ctrls.perBankWrBursts::0               642                       # Per bank write bursts
system.mem_ctrls.perBankWrBursts::1               642                       # Per bank write bursts
system.mem_ctrls.perBankWrBursts::2               580                       # Per bank write bursts
system.mem_ctrls.perBankWrBursts::3               515                       # Per bank write bursts
system.mem_ctrls.perBankWrBursts::4               523                       # Per bank write bursts
system.mem_ctrls.perBankWrBursts::5               520                       # Per bank write bursts
system.mem_ctrls.perBankWrBursts::6               642                       # Per bank write bursts
system.mem_ctrls.perBankWrBursts::7               651                       # Per bank write bursts
system.mem_ctrls.perBankWrBursts::8               643                       # Per bank write bursts
system.mem_ctrls.perBankWrBursts::9               580                       # Per bank write bursts
system.mem_ctrls.perBankWrBursts::10              520                       # Per bank write bursts
system.mem_ctrls.perBankWrBursts::11              524                       # Per bank write bursts
system.mem_ctrls.perBankWrBursts::12              555                       # Per bank write bursts
system.mem_ctrls.perBankWrBursts::13              635                       # Per bank write bursts
system.mem_ctrls.perBankWrBursts::14              642                       # Per bank write bursts
system.mem_ctrls.perBankWrBursts::15              642                       # Per bank write bursts
system.mem_ctrls.numRdRetry                         0                       # Number of times read queue was full causing retry
system.mem_ctrls.numWrRetry                         0                       # Number of times write queue was full causing retry
system.mem_ctrls.totGap                   14996457500                       # Total gap between requests
system.mem_ctrls.readPktSize::0                     0                       # Read request sizes (log2)
system.mem_ctrls.readPktSize::1                     0                       # Read request sizes (log2)
system.mem_ctrls.readPktSize::2                     0                       # Read request sizes (log2)
system.mem_ctrls.readPktSize::3                     0                       # Read request sizes (log2)
system.mem_ctrls.readPktSize::4                     0                       # Read request sizes (log2)
system.mem_ctrls.readPktSize::5                     0                       # Read request sizes (log2)
system.mem_ctrls.readPktSize::6                 61586                       # Read request sizes (log2)
system.mem_ctrls.writePktSize::0                    0                       # Write request sizes (log2)
system.mem_ctrls.writePktSize::1                    0                       # Write request sizes (log2)
system.mem_ctrls.writePktSize::2                    0                       # Write request sizes (log2)
system.mem_ctrls.writePktSize::3                    0                       # Write request sizes (log2)
system.mem_ctrls.writePktSize::4                    0                       # Write request sizes (log2)
system.mem_ctrls.writePktSize::5                    0                       # Write request sizes (log2)
system.mem_ctrls.writePktSize::6                 9463                       # Write request sizes (log2)
system.mem_ctrls.rdQLenPdf::0                   61087                       # What read queue length does an incoming req see
system.mem_ctrls.rdQLenPdf::1                     357                       # What read queue length does an incoming req see
system.mem_ctrls.rdQLenPdf::2                     107                       # What read queue length does an incoming req see
system.mem_ctrls.rdQLenPdf::3                      30                       # What read queue length does an incoming req see
system.mem_ctrls.rdQLenPdf::4                       5                       # What read queue length does an incoming req see
system.mem_ctrls.rdQLenPdf::5                       0                       # What read queue length does an incoming req see
system.mem_ctrls.rdQLenPdf::6                       0                       # What read queue length does an incoming req see
system.mem_ctrls.rdQLenPdf::7                       0                       # What read queue length does an incoming req see
system.mem_ctrls.rdQLenPdf::8                       0                       # What read queue length does an incoming req see
system.mem_ctrls.rdQLenPdf::9                       0                       # What read queue length does an incoming req see
system.mem_ctrls.rdQLenPdf::10                      0                       # What read queue length does an incoming req see
system.mem_ctrls.rdQLenPdf::11                      0                       # What read queue length does an incoming req see
system.mem_ctrls.rdQLenPdf::12                      0                       # What read queue length does an incoming req see
system.mem_ctrls.rdQLenPdf::13                      0                       # What read queue length does an incoming req see
system.mem_ctrls.rdQLenPdf::14                      0                       # What read queue length does an incoming req see
system.mem_ctrls.rdQLenPdf::15                      0                       # What read queue length does an incoming req see
system.mem_ctrls.rdQLenPdf::16                      0                       # What read queue length does an incoming req see
system.mem_ctrls.rdQLenPdf::17                      0                       # What read queue length does an incoming req see
system.mem_ctrls.rdQLenPdf::18                      0                       # What read queue length does an incoming req see
system.mem_ctrls.rdQLenPdf::19                      0                       # What read queue length does an incoming req see
system.mem_ctrls.rdQLenPdf::20                      0                       # What read queue length does an incoming req see
system.mem_ctrls.rdQLenPdf::21                      0                       # What read queue length does an incoming req see
system.mem_ctrls.rdQLenPdf::22                      0                       # What read queue length does an incoming req see
system.mem_ctrls.rdQLenPdf::23                      0                       # What read queue length does an incoming req see
system.mem_ctrls.rdQLenPdf::24                      0                       # What read queue length does an incoming req see
system.mem_ctrls.rdQLenPdf::25                      0                       # What read queue length does an incoming req see
system.mem_ctrls.rdQLenPdf::26                      0                       # What read queue length does an incoming req see
system.mem_ctrls.rdQLenPdf::27                      0                       # What read queue length does an incoming req see
system.mem_ctrls.rdQLenPdf::28                      0                       # What read queue length does an incoming req see
system.mem_ctrls.rdQLenPdf::29                      0                       # What read queue length does an incoming req see
system.mem_ctrls.rdQLenPdf::30                      0                       # What read queue length does an incoming req see
system.mem_ctrls.rdQLenPdf::31                      0                       # What read queue length does an incoming req see
system.mem_ctrls.wrQLenPdf::0                       0                       # What write queue length does an incoming req see
system.mem_ctrls.wrQLenPdf::1                       0                       # What write queue length does an incoming req see
system.mem_ctrls.wrQLenPdf::2                       0                       # What write queue length does an incoming req see
system.mem_ctrls.wrQLenPdf::3                       0                       # What write queue length does an incoming req see
system.mem_ctrls.wrQLenPdf::4                       0                       # What write queue length does an incoming req see
system.mem_ctrls.wrQLenPdf::5                       0                       # What write queue length does an incoming req see
system.mem_ctrls.wrQLenPdf::6                       0                       # What write queue length does an incoming req see
system.mem_ctrls.wrQLenPdf::7                       0                       # What write queue length does an incoming req see
system.mem_ctrls.wrQLenPdf::8                       0                       # What write queue length does an incoming req see
system.mem_ctrls.wrQLenPdf::9                       0                       # What write queue length does an incoming req see
system.mem_ctrls.wrQLenPdf::10                      0                       # What write queue length does an incoming req see
system.mem_ctrls.wrQLenPdf::11                      0                       # What write queue length does an incoming req see
system.mem_ctrls.wrQLenPdf::12                      0                       # What write queue length does an incoming req see
system.mem_ctrls.wrQLenPdf::13                      0                       # What write queue length does an incoming req see
system.mem_ctrls.wrQLenPdf::14                      0                       # What write queue length does an incoming req see
system.mem_ctrls.wrQLenPdf::15                      0                       # What write queue length does an incoming req see
system.mem_ctrls.wrQLenPdf::16                      0                       # What write queue length does an incoming req see
system.mem_ctrls.wrQLenPdf::17                    590                       # What write queue length does an incoming req see
system.mem_ctrls.wrQLenPdf::18                    591                       # What write queue length does an incoming req see
system.mem_ctrls.wrQLenPdf::19                    591                       # What write queue length does an incoming req see
system.mem_ctrls.wrQLenPdf::20                    591                       # What write queue length does an incoming req see
system.mem_ctrls.wrQLenPdf::21                    591                       # What write queue length does an incoming req see
system.mem_ctrls.wrQLenPdf::22                    591                       # What write queue length does an incoming req see
system.mem_ctrls.wrQLenPdf::23                    591                       # What write queue length does an incoming req see
system.mem_ctrls.wrQLenPdf::24                    591                       # What write queue length does an incoming req see
system.mem_ctrls.wrQLenPdf::25                    592                       # What write queue length does an incoming req see
system.mem_ctrls.wrQLenPdf::26                    592                       # What write queue length does an incoming req see
system.mem_ctrls.wrQLenPdf::27                    592                       # What write queue length does an incoming req see
system.mem_ctrls.wrQLenPdf::28                    592                       # What write queue length does an incoming req see
system.mem_ctrls.wrQLenPdf::29                    593                       # What write queue length does an incoming req see
system.mem_ctrls.wrQLenPdf::30                    592                       # What write queue length does an incoming req see
system.mem_ctrls.wrQLenPdf::31                    592                       # What write queue length does an incoming req see
system.mem_ctrls.wrQLenPdf::32                    591                       # What write queue length does an incoming req see
system.mem_ctrls.wrQLenPdf::33                      0                       # What write queue length does an incoming req see
system.mem_ctrls.wrQLenPdf::34                      0                       # What write queue length does an incoming req see
system.mem_ctrls.wrQLenPdf::35                      0                       # What write queue length does an incoming req see
system.mem_ctrls.wrQLenPdf::36                      0                       # What write queue length does an incoming req see
system.mem_ctrls.wrQLenPdf::37                      0                       # What write queue length does an incoming req see
system.mem_ctrls.wrQLenPdf::38                      0                       # What write queue length does an incoming req see
system.mem_ctrls.wrQLenPdf::39                      0                       # What write queue length does an incoming req see
system.mem_ctrls.wrQLenPdf::40                      0                       # What write queue length does an incoming req see
system.mem_ctrls.wrQLenPdf::41                      0                       # What write queue length does an incoming req see
system.mem_ctrls.wrQLenPdf::42                      0                       # What write queue length does an incoming req see
system.mem_ctrls.wrQLenPdf::43                      0                       # What write queue length does an incoming req see
system.mem_ctrls.wrQLenPdf::44                      0                       # What write queue length does an incoming req see
system.mem_ctrls.wrQLenPdf::45                      0                       # What write queue length does an incoming req see
system.mem_ctrls.wrQLenPdf::46                      0                       # What write queue length does an incoming req see
system.mem_ctrls.wrQLenPdf::47                      0                       # What write queue length does an incoming req see
system.mem_ctrls.wrQLenPdf::48                      0                       # What write queue length does an incoming req see
system.mem_ctrls.wrQLenPdf::49                      0                       # What write queue length does an incoming req see
system.mem_ctrls.wrQLenPdf::50                      0                       # What write queue length does an incoming req see
system.mem_ctrls.wrQLenPdf::51                      0                       # What write queue length does an incoming req see
system.mem_ctrls.wrQLenPdf::52                      0                       # What write queue length does an incoming req see
system.mem_ctrls.wrQLenPdf::53                      0                       # What write queue length does an incoming req see
system.mem_ctrls.wrQLenPdf::54                      0                       # What write queue length does an incoming req see
system.mem_ctrls.wrQLenPdf::55                      0                       # What write queue length does an incoming req see
system.mem_ctrls.wrQLenPdf::56                      0                       # What write queue length does an incoming req see
system.mem_ctrls.wrQLenPdf::57                      0                       # What write queue length does an incoming req see
system.mem_ctrls.wrQLenPdf::58                      0                       # What write queue length does an incoming req see
system.mem_ctrls.wrQLenPdf::59                      0                       # What write queue length does an incoming req see
system.mem_ctrls.wrQLenPdf::60                      0                       # What write queue length does an incoming req see
system.mem_ctrls.wrQLenPdf::61                      0                       # What write queue length does an incoming req see
system.mem_ctrls.wrQLenPdf::62                      0                       # What write queue length does an incoming req see
system.mem_ctrls.wrQLenPdf::63                      0                       # What write queue length does an incoming req see
system.mem_ctrls.bytesPerActivate::samples         7342                       # Bytes accessed per row activation
system.mem_ctrls.bytesPerActivate::mean    619.279760                       # Bytes accessed per row activation
system.mem_ctrls.bytesPerActivate::gmean   444.217509                       # Bytes accessed per row activation
system.mem_ctrls.bytesPerActivate::stdev   372.483107                       # Bytes accessed per row activation
system.mem_ctrls.bytesPerActivate::0-127          901     12.27%     12.27% # Bytes accessed per row activation
system.mem_ctrls.bytesPerActivate::128-255          829     11.29%     23.56% # Bytes accessed per row activation
system.mem_ctrls.bytesPerActivate::256-383          275      3.75%     27.31% # Bytes accessed per row activation
system.mem_ctrls.bytesPerActivate::384-511         1208     16.45%     43.76% # Bytes accessed per row activation
system.mem_ctrls.bytesPerActivate::512-639          207      2.82%     46.58% # Bytes accessed per row activation
system.mem_ctrls.bytesPerActivate::640-767          222      3.02%     49.61% # Bytes accessed per row activation
system.mem_ctrls.bytesPerActivate::768-895         1081     14.72%     64.33% # Bytes accessed per row activation
system.mem_ctrls.bytesPerActivate::896-1023          121      1.65%     65.98% # Bytes accessed per row activation
system.mem_ctrls.bytesPerActivate::1024-1151         2498     34.02%    100.00% # Bytes accessed per row activation
system.mem_ctrls.bytesPerActivate::total         7342                       # Bytes accessed per row activation
system.mem_ctrls.rdPerTurnAround::samples          591                       # Reads before turning the bus around for writes
system.mem_ctrls.rdPerTurnAround::mean     194.785110                       # Reads before turning the bus around for writes
system.mem_ctrls.rdPerTurnAround::gmean     19.365929                       # Reads before turning the bus around for writes
system.mem_ctrls.rdPerTurnAround::stdev   2957.795197                       # Reads before turning the bus around for writes
system.mem_ctrls.rdPerTurnAround::0-4095          587     99.32%     99.32% # Reads before turning the bus around for writes
system.mem_ctrls.rdPerTurnAround::4096-8191            2      0.34%     99.66% # Reads before turning the bus around for writes
system.mem_ctrls.rdPerTurnAround::8192-12287            1      0.17%     99.83% # Reads before turning the bus around for writes
system.mem_ctrls.rdPerTurnAround::69632-73727            1      0.17%    100.00% # Reads before turning the bus around for writes
system.mem_ctrls.rdPerTurnAround::total           591                       # Reads before turning the bus around for writes
system.mem_ctrls.wrPerTurnAround::samples          591                       # Writes before turning the bus around for reads
system.mem_ctrls.wrPerTurnAround::mean             16                       # Writes before turning the bus around for reads
system.mem_ctrls.wrPerTurnAround::gmean     16.000000                       # Writes before turning the bus around for reads
system.mem_ctrls.wrPerTurnAround::16              591    100.00%    100.00% # Writes before turning the bus around for reads
system.mem_ctrls.wrPerTurnAround::total           591                       # Writes before turning the bus around for reads
system.mem_ctrls.totQLat                    815797250                       # Total ticks spent queuing
system.mem_ctrls.totMemAccLat              1970534750                       # Total ticks spent from burst creation until serviced by the DRAM
system.mem_ctrls.totBusLat                  307930000                       # Total ticks spent in databus transfers
system.mem_ctrls.avgQLat                     13246.47                       # Average queueing delay per DRAM burst
system.mem_ctrls.avgBusLat                    5000.00                       # Average bus latency per DRAM burst
system.mem_ctrls.avgMemAccLat                31996.47                       # Average memory access latency per DRAM burst
system.mem_ctrls.avgRdBW                       258.17                       # Average DRAM read bandwidth in MiByte/s
system.mem_ctrls.avgWrBW                        39.64                       # Average achieved write bandwidth in MiByte/s
system.mem_ctrls.avgRdBWSys                    258.17                       # Average system read bandwidth in MiByte/s
system.mem_ctrls.avgWrBWSys                     39.67                       # Average system write bandwidth in MiByte/s
system.mem_ctrls.peakBW                      12800.00                       # Theoretical peak bandwidth in MiByte/s
system.mem_ctrls.busUtil                         2.33                       # Data bus utilization in percentage
system.mem_ctrls.busUtilRead                     2.02                       # Data bus utilization in percentage for reads
system.mem_ctrls.busUtilWrite                    0.31                       # Data bus utilization in percentage for writes
system.mem_ctrls.avgRdQLen                       1.01                       # Average read queue length when enqueuing
system.mem_ctrls.avgWrQLen                      25.94                       # Average write queue length when enqueuing
system.mem_ctrls.readRowHits                    54991                       # Number of row buffer hits during reads
system.mem_ctrls.writeRowHits                    8710                       # Number of row buffer hits during writes
system.mem_ctrls.readRowHitRate                 89.29                       # Row buffer hit rate for reads
system.mem_ctrls.writeRowHitRate                92.04                       # Row buffer hit rate for writes
system.mem_ctrls.avgGap                     211072.04                       # Average gap between requests
system.mem_ctrls.pageHitRate                    89.66                       # Row buffer hit rate, read and write combined
system.mem_ctrls_0.actEnergy                 22990800                       # Energy for activate commands per rank (pJ)
system.mem_ctrls_0.preEnergy                 12223695                       # Energy for precharge commands per rank (pJ)
system.mem_ctrls_0.readEnergy               220104780                       # Energy for read commands per rank (pJ)
system.mem_ctrls_0.writeEnergy               24612300                       # Energy for write commands per rank (pJ)
system.mem_ctrls_0.refreshEnergy         713597040.000000                       # Energy for refresh commands per rank (pJ)
system.mem_ctrls_0.actBackEnergy            533264070                       # Energy for active background per rank (pJ)
system.mem_ctrls_0.preBackEnergy             24290400                       # Energy for precharge background per rank (pJ)
system.mem_ctrls_0.actPowerDownEnergy      3227394150                       # Energy for active power-down per rank (pJ)
system.mem_ctrls_0.prePowerDownEnergy       182626560                       # Energy for precharge power-down per rank (pJ)
system.mem_ctrls_0.selfRefreshEnergy       1575426240                       # Energy for self refresh per rank (pJ)
system.mem_ctrls_0.totalEnergy             6536530035                       # Total energy per rank (pJ)
system.mem_ctrls_0.averagePower            428.137991                       # Core power per rank (mW)
system.mem_ctrls_0.totalIdleTime          13772558625                       # Total Idle time Per DRAM Rank
system.mem_ctrls_0.memoryStateTime::IDLE     19260000                       # Time in different power states
system.mem_ctrls_0.memoryStateTime::REF     302142000                       # Time in different power states
system.mem_ctrls_0.memoryStateTime::SREF   6481438750                       # Time in different power states
system.mem_ctrls_0.memoryStateTime::PRE_PDN    475440000                       # Time in different power states
system.mem_ctrls_0.memoryStateTime::ACT     911587250                       # Time in different power states
system.mem_ctrls_0.memoryStateTime::ACT_PDN   7077476125                       # Time in different power states
system.mem_ctrls_1.actEnergy                 29423940                       # Energy for activate commands per rank (pJ)
system.mem_ctrls_1.preEnergy                 15639195                       # Energy for precharge commands per rank (pJ)
system.mem_ctrls_1.readEnergy               219619260                       # Energy for read commands per rank (pJ)
system.mem_ctrls_1.writeEnergy               24748020                       # Energy for write commands per rank (pJ)
system.mem_ctrls_1.refreshEnergy         759080400.000000                       # Energy for refresh commands per rank (pJ)
system.mem_ctrls_1.actBackEnergy            553561200                       # Energy for active background per rank (pJ)
system.mem_ctrls_1.preBackEnergy             30845280                       # Energy for precharge background per rank (pJ)
system.mem_ctrls_1.actPowerDownEnergy      3390486540                       # Energy for active power-down per rank (pJ)
system.mem_ctrls_1.prePowerDownEnergy       215040960                       # Energy for precharge power-down per rank (pJ)
system.mem_ctrls_1.selfRefreshEnergy       1459519800                       # Energy for self refresh per rank (pJ)
system.mem_ctrls_1.totalEnergy             6698057085                       # Total energy per rank (pJ)
system.mem_ctrls_1.averagePower            438.717896                       # Core power per rank (mW)
system.mem_ctrls_1.totalIdleTime          13710911125                       # Total Idle time Per DRAM Rank
system.mem_ctrls_1.memoryStateTime::IDLE     22212000                       # Time in different power states
system.mem_ctrls_1.memoryStateTime::REF     321436000                       # Time in different power states
system.mem_ctrls_1.memoryStateTime::SREF   5977586625                       # Time in different power states
system.mem_ctrls_1.memoryStateTime::PRE_PDN    559900250                       # Time in different power states
system.mem_ctrls_1.memoryStateTime::ACT     950984750                       # Time in different power states
system.mem_ctrls_1.memoryStateTime::ACT_PDN   7435224500                       # Time in different power states
system.pwrStateResidencyTicks::UNDEFINED  15267344125                       # Cumulative time (in ticks) in various power states
system.cpu0.branchPred.lookups                7710776                       # Number of BP lookups
system.cpu0.branchPred.condPredicted          7710776                       # Number of conditional branches predicted
system.cpu0.branchPred.condIncorrect             7943                       # Number of conditional branches incorrect
system.cpu0.branchPred.BTBLookups             6544571                       # Number of BTB lookups
system.cpu0.branchPred.BTBHits                      0                       # Number of BTB hits
system.cpu0.branchPred.BTBCorrect                   0                       # Number of correct BTB predictions (this stat may not work properly.
system.cpu0.branchPred.BTBHitPct             0.000000                       # BTB Hit Percentage
system.cpu0.branchPred.usedRAS                 814804                       # Number of times the RAS was used to get a target.
system.cpu0.branchPred.RASInCorrect               934                       # Number of incorrect RAS predictions.
system.cpu0.branchPred.indirectLookups        6544571                       # Number of indirect predictor lookups.
system.cpu0.branchPred.indirectHits           3939229                       # Number of indirect target hits.
system.cpu0.branchPred.indirectMisses         2605342                       # Number of indirect misses.
system.cpu0.branchPredindirectMispredicted         5300                       # Number of mispredicted indirect branches.
system.cpu_voltage_domain.voltage                   1                       # Voltage in Volts
system.cpu_clk_domain.clock                       500                       # Clock period in ticks
system.cpu0.dtb.walker.pwrStateResidencyTicks::UNDEFINED  15267344125                       # Cumulative time (in ticks) in various power states
system.cpu0.dtb.rdAccesses                    8785956                       # TLB accesses on read requests
system.cpu0.dtb.wrAccesses                    4095156                       # TLB accesses on write requests
system.cpu0.dtb.rdMisses                         3132                       # TLB misses on read requests
system.cpu0.dtb.wrMisses                         2657                       # TLB misses on write requests
system.cpu0.apic_clk_domain.clock                8000                       # Clock period in ticks
system.cpu0.interrupts.pwrStateResidencyTicks::UNDEFINED  15267344125                       # Cumulative time (in ticks) in various power states
system.cpu0.itb.walker.pwrStateResidencyTicks::UNDEFINED  15267344125                       # Cumulative time (in ticks) in various power states
system.cpu0.itb.rdAccesses                          0                       # TLB accesses on read requests
system.cpu0.itb.wrAccesses                    3758855                       # TLB accesses on write requests
system.cpu0.itb.rdMisses                            0                       # TLB misses on read requests
system.cpu0.itb.wrMisses                          127                       # TLB misses on write requests
system.cpu0.workload.numSyscalls                   61                       # Number of system calls
system.cpu0.pwrStateResidencyTicks::ON    15267344125                       # Cumulative time (in ticks) in various power states
system.cpu0.numCycles                        30534688                       # number of cpu cycles simulated
system.cpu0.numWorkItemsStarted                     0                       # number of work items this cpu started
system.cpu0.numWorkItemsCompleted                   0                       # number of work items this cpu completed
system.cpu0.fetch.icacheStallCycles           3796836                       # Number of cycles fetch is stalled on an Icache miss
system.cpu0.fetch.Insts                      33086223                       # Number of instructions fetch has processed
system.cpu0.fetch.Branches                    7710776                       # Number of branches that fetch encountered
system.cpu0.fetch.predictedBranches           4754033                       # Number of branches that fetch has predicted taken
system.cpu0.fetch.Cycles                     26679050                       # Number of cycles fetch has run and was not squashing or blocked
system.cpu0.fetch.SquashCycles                  16302                       # Number of cycles fetch has spent squashing
system.cpu0.fetch.TlbCycles                         3                       # Number of cycles fetch has spent waiting for tlb
system.cpu0.fetch.MiscStallCycles                 129                       # Number of cycles fetch has spent waiting on interrupts, or bad addresses, or out of MSHRs
system.cpu0.fetch.PendingTrapStallCycles          154                       # Number of stall cycles due to pending traps
system.cpu0.fetch.IcacheWaitRetryStallCycles           15                       # Number of stall cycles due to full MSHR
system.cpu0.fetch.CacheLines                  3758815                       # Number of cache lines fetched
system.cpu0.fetch.IcacheSquashes                 3018                       # Number of outstanding Icache misses that were squashed
system.cpu0.fetch.rateDist::samples          30484338                       # Number of instructions fetched each cycle (Total)
system.cpu0.fetch.rateDist::mean             2.306468                       # Number of instructions fetched each cycle (Total)
system.cpu0.fetch.rateDist::stdev            3.318755                       # Number of instructions fetched each cycle (Total)
system.cpu0.fetch.rateDist::underflows              0      0.00%      0.00% # Number of instructions fetched each cycle (Total)
system.cpu0.fetch.rateDist::0                19408570     63.67%     63.67% # Number of instructions fetched each cycle (Total)
system.cpu0.fetch.rateDist::1                  299375      0.98%     64.65% # Number of instructions fetched each cycle (Total)
system.cpu0.fetch.rateDist::2                  507933      1.67%     66.32% # Number of instructions fetched each cycle (Total)
system.cpu0.fetch.rateDist::3                 1062454      3.49%     69.80% # Number of instructions fetched each cycle (Total)
system.cpu0.fetch.rateDist::4                  520263      1.71%     71.51% # Number of instructions fetched each cycle (Total)
system.cpu0.fetch.rateDist::5                 1024561      3.36%     74.87% # Number of instructions fetched each cycle (Total)
system.cpu0.fetch.rateDist::6                 1026725      3.37%     78.24% # Number of instructions fetched each cycle (Total)
system.cpu0.fetch.rateDist::7                  631316      2.07%     80.31% # Number of instructions fetched each cycle (Total)
system.cpu0.fetch.rateDist::8                 6003141     19.69%    100.00% # Number of instructions fetched each cycle (Total)
system.cpu0.fetch.rateDist::overflows               0      0.00%    100.00% # Number of instructions fetched each cycle (Total)
system.cpu0.fetch.rateDist::min_value               0                       # Number of instructions fetched each cycle (Total)
system.cpu0.fetch.rateDist::max_value               8                       # Number of instructions fetched each cycle (Total)
system.cpu0.fetch.rateDist::total            30484338                       # Number of instructions fetched each cycle (Total)
system.cpu0.fetch.branchRate                 0.252525                       # Number of branch fetches per cycle
system.cpu0.fetch.rate                       1.083562                       # Number of inst fetches per cycle
system.cpu0.decode.IdleCycles                 3368125                       # Number of cycles decode is idle
system.cpu0.decode.BlockedCycles             17311790                       # Number of cycles decode is blocked
system.cpu0.decode.RunCycles                  7011058                       # Number of cycles decode is running
system.cpu0.decode.UnblockCycles              2785214                       # Number of cycles decode is unblocking
system.cpu0.decode.SquashCycles                  8151                       # Number of cycles decode is squashing
system.cpu0.decode.DecodedInsts              70252856                       # Number of instructions handled by decode
system.cpu0.rename.SquashCycles                  8151                       # Number of cycles rename is squashing
system.cpu0.rename.IdleCycles                 4513387                       # Number of cycles rename is idle
system.cpu0.rename.BlockCycles                4231542                       # Number of cycles rename is blocking
system.cpu0.rename.serializeStallCycles          2645                       # count of cycles rename stalled for serializing inst
system.cpu0.rename.RunCycles                  8646495                       # Number of cycles rename is running
system.cpu0.rename.UnblockCycles             13082118                       # Number of cycles rename is unblocking
system.cpu0.rename.RenamedInsts              70218403                       # Number of instructions processed by rename
system.cpu0.rename.ROBFullEvents                  858                       # Number of times rename has blocked due to ROB full
system.cpu0.rename.IQFullEvents               2520602                       # Number of times rename has blocked due to IQ full
system.cpu0.rename.LQFullEvents                281502                       # Number of times rename has blocked due to LQ full
system.cpu0.rename.SQFullEvents               9392089                       # Number of times rename has blocked due to SQ full
system.cpu0.rename.RenamedOperands           86863880                       # Number of destination operands rename has renamed
system.cpu0.rename.RenameLookups            183423063                       # Number of register rename lookups that rename has made
system.cpu0.rename.int_rename_lookups       108420868                       # Number of integer rename lookups
system.cpu0.rename.fp_rename_lookups          3123987                       # Number of floating rename lookups
system.cpu0.rename.CommittedMaps             86545183                       # Number of HB maps that are committed
system.cpu0.rename.UndoneMaps                  318819                       # Number of HB maps that are undone due to squashing
system.cpu0.rename.serializingInsts               130                       # count of serializing insts renamed
system.cpu0.rename.tempSerializingInsts           134                       # count of temporary serializing insts renamed
system.cpu0.rename.skidInsts                 14455647                       # count of insts added to the skid buffer
system.cpu0.memDep0.insertedLoads             8527421                       # Number of loads inserted to the mem dependence unit.
system.cpu0.memDep0.insertedStores            4103674                       # Number of stores inserted to the mem dependence unit.
system.cpu0.memDep0.conflictingLoads           251681                       # Number of conflicting loads.
system.cpu0.memDep0.conflictingStores           20601                       # Number of conflicting stores.
system.cpu0.iq.iqInstsAdded                  70151203                       # Number of instructions added to the IQ (excludes non-spec)
system.cpu0.iq.iqNonSpecInstsAdded                698                       # Number of non-speculative instructions added to the IQ
system.cpu0.iq.iqInstsIssued                 70232615                       # Number of instructions issued
system.cpu0.iq.iqSquashedInstsIssued             2012                       # Number of squashed instructions issued
system.cpu0.iq.iqSquashedInstsExamined         203938                       # Number of squashed instructions iterated over during squash; mainly for profiling
system.cpu0.iq.iqSquashedOperandsExamined       297639                       # Number of squashed operands that are examined and possibly removed from graph
system.cpu0.iq.iqSquashedNonSpecRemoved           607                       # Number of squashed non-spec instructions that were removed
system.cpu0.iq.issued_per_cycle::samples     30484338                       # Number of insts issued each cycle
system.cpu0.iq.issued_per_cycle::mean        2.303892                       # Number of insts issued each cycle
system.cpu0.iq.issued_per_cycle::stdev       2.516502                       # Number of insts issued each cycle
system.cpu0.iq.issued_per_cycle::underflows            0      0.00%      0.00% # Number of insts issued each cycle
system.cpu0.iq.issued_per_cycle::0           13221305     43.37%     43.37% # Number of insts issued each cycle
system.cpu0.iq.issued_per_cycle::1            1758510      5.77%     49.14% # Number of insts issued each cycle
system.cpu0.iq.issued_per_cycle::2            2635130      8.64%     57.78% # Number of insts issued each cycle
system.cpu0.iq.issued_per_cycle::3            2874472      9.43%     67.21% # Number of insts issued each cycle
system.cpu0.iq.issued_per_cycle::4            3046277      9.99%     77.21% # Number of insts issued each cycle
system.cpu0.iq.issued_per_cycle::5            3035199      9.96%     87.16% # Number of insts issued each cycle
system.cpu0.iq.issued_per_cycle::6            1466216      4.81%     91.97% # Number of insts issued each cycle
system.cpu0.iq.issued_per_cycle::7            1155802      3.79%     95.76% # Number of insts issued each cycle
system.cpu0.iq.issued_per_cycle::8            1291427      4.24%    100.00% # Number of insts issued each cycle
system.cpu0.iq.issued_per_cycle::overflows            0      0.00%    100.00% # Number of insts issued each cycle
system.cpu0.iq.issued_per_cycle::min_value            0                       # Number of insts issued each cycle
system.cpu0.iq.issued_per_cycle::max_value            8                       # Number of insts issued each cycle
system.cpu0.iq.issued_per_cycle::total       30484338                       # Number of insts issued each cycle
system.cpu0.iq.fu_full::No_OpClass                  0      0.00%      0.00% # attempts to use FU when none available
system.cpu0.iq.fu_full::IntAlu                 775854     67.44%     67.44% # attempts to use FU when none available
system.cpu0.iq.fu_full::IntMult                     0      0.00%     67.44% # attempts to use FU when none available
system.cpu0.iq.fu_full::IntDiv                      0      0.00%     67.44% # attempts to use FU when none available
system.cpu0.iq.fu_full::FloatAdd               116221     10.10%     77.55% # attempts to use FU when none available
system.cpu0.iq.fu_full::FloatCmp                    0      0.00%     77.55% # attempts to use FU when none available
system.cpu0.iq.fu_full::FloatCvt                    0      0.00%     77.55% # attempts to use FU when none available
system.cpu0.iq.fu_full::FloatMult                   0      0.00%     77.55% # attempts to use FU when none available
system.cpu0.iq.fu_full::FloatMultAcc                0      0.00%     77.55% # attempts to use FU when none available
system.cpu0.iq.fu_full::FloatDiv                    0      0.00%     77.55% # attempts to use FU when none available
system.cpu0.iq.fu_full::FloatMisc                   0      0.00%     77.55% # attempts to use FU when none available
system.cpu0.iq.fu_full::FloatSqrt                   0      0.00%     77.55% # attempts to use FU when none available
system.cpu0.iq.fu_full::SimdAdd                     0      0.00%     77.55% # attempts to use FU when none available
system.cpu0.iq.fu_full::SimdAddAcc                  0      0.00%     77.55% # attempts to use FU when none available
system.cpu0.iq.fu_full::SimdAlu                     0      0.00%     77.55% # attempts to use FU when none available
system.cpu0.iq.fu_full::SimdCmp                     0      0.00%     77.55% # attempts to use FU when none available
system.cpu0.iq.fu_full::SimdCvt                     0      0.00%     77.55% # attempts to use FU when none available
system.cpu0.iq.fu_full::SimdMisc                    0      0.00%     77.55% # attempts to use FU when none available
system.cpu0.iq.fu_full::SimdMult                    0      0.00%     77.55% # attempts to use FU when none available
system.cpu0.iq.fu_full::SimdMultAcc                 0      0.00%     77.55% # attempts to use FU when none available
system.cpu0.iq.fu_full::SimdShift                   0      0.00%     77.55% # attempts to use FU when none available
system.cpu0.iq.fu_full::SimdShiftAcc                0      0.00%     77.55% # attempts to use FU when none available
system.cpu0.iq.fu_full::SimdSqrt                    0      0.00%     77.55% # attempts to use FU when none available
system.cpu0.iq.fu_full::SimdFloatAdd                0      0.00%     77.55% # attempts to use FU when none available
system.cpu0.iq.fu_full::SimdFloatAlu                0      0.00%     77.55% # attempts to use FU when none available
system.cpu0.iq.fu_full::SimdFloatCmp                0      0.00%     77.55% # attempts to use FU when none available
system.cpu0.iq.fu_full::SimdFloatCvt                0      0.00%     77.55% # attempts to use FU when none available
system.cpu0.iq.fu_full::SimdFloatDiv                0      0.00%     77.55% # attempts to use FU when none available
system.cpu0.iq.fu_full::SimdFloatMisc               0      0.00%     77.55% # attempts to use FU when none available
system.cpu0.iq.fu_full::SimdFloatMult               0      0.00%     77.55% # attempts to use FU when none available
system.cpu0.iq.fu_full::SimdFloatMultAcc            0      0.00%     77.55% # attempts to use FU when none available
system.cpu0.iq.fu_full::SimdFloatSqrt               0      0.00%     77.55% # attempts to use FU when none available
system.cpu0.iq.fu_full::MemRead                139308     12.11%     89.66% # attempts to use FU when none available
system.cpu0.iq.fu_full::MemWrite               116010     10.08%     99.74% # attempts to use FU when none available
system.cpu0.iq.fu_full::FloatMemRead             2728      0.24%     99.98% # attempts to use FU when none available
system.cpu0.iq.fu_full::FloatMemWrite             252      0.02%    100.00% # attempts to use FU when none available
system.cpu0.iq.fu_full::IprAccess                   0      0.00%    100.00% # attempts to use FU when none available
system.cpu0.iq.fu_full::InstPrefetch                0      0.00%    100.00% # attempts to use FU when none available
system.cpu0.iq.FU_type_0::No_OpClass           583558      0.83%      0.83% # Type of FU issued
system.cpu0.iq.FU_type_0::IntAlu             53668001     76.41%     77.25% # Type of FU issued
system.cpu0.iq.FU_type_0::IntMult                 109      0.00%     77.25% # Type of FU issued
system.cpu0.iq.FU_type_0::IntDiv              1737043      2.47%     79.72% # Type of FU issued
system.cpu0.iq.FU_type_0::FloatAdd            1473729      2.10%     81.82% # Type of FU issued
system.cpu0.iq.FU_type_0::FloatCmp                  0      0.00%     81.82% # Type of FU issued
system.cpu0.iq.FU_type_0::FloatCvt                  0      0.00%     81.82% # Type of FU issued
system.cpu0.iq.FU_type_0::FloatMult                 0      0.00%     81.82% # Type of FU issued
system.cpu0.iq.FU_type_0::FloatMultAcc              0      0.00%     81.82% # Type of FU issued
system.cpu0.iq.FU_type_0::FloatDiv                  0      0.00%     81.82% # Type of FU issued
system.cpu0.iq.FU_type_0::FloatMisc                 0      0.00%     81.82% # Type of FU issued
system.cpu0.iq.FU_type_0::FloatSqrt                 0      0.00%     81.82% # Type of FU issued
system.cpu0.iq.FU_type_0::SimdAdd                   0      0.00%     81.82% # Type of FU issued
system.cpu0.iq.FU_type_0::SimdAddAcc                0      0.00%     81.82% # Type of FU issued
system.cpu0.iq.FU_type_0::SimdAlu                   0      0.00%     81.82% # Type of FU issued
system.cpu0.iq.FU_type_0::SimdCmp                   0      0.00%     81.82% # Type of FU issued
system.cpu0.iq.FU_type_0::SimdCvt                   0      0.00%     81.82% # Type of FU issued
system.cpu0.iq.FU_type_0::SimdMisc                  0      0.00%     81.82% # Type of FU issued
system.cpu0.iq.FU_type_0::SimdMult                  0      0.00%     81.82% # Type of FU issued
system.cpu0.iq.FU_type_0::SimdMultAcc               0      0.00%     81.82% # Type of FU issued
system.cpu0.iq.FU_type_0::SimdShift                 0      0.00%     81.82% # Type of FU issued
system.cpu0.iq.FU_type_0::SimdShiftAcc              0      0.00%     81.82% # Type of FU issued
system.cpu0.iq.FU_type_0::SimdSqrt                  0      0.00%     81.82% # Type of FU issued
system.cpu0.iq.FU_type_0::SimdFloatAdd              0      0.00%     81.82% # Type of FU issued
system.cpu0.iq.FU_type_0::SimdFloatAlu              0      0.00%     81.82% # Type of FU issued
system.cpu0.iq.FU_type_0::SimdFloatCmp              0      0.00%     81.82% # Type of FU issued
system.cpu0.iq.FU_type_0::SimdFloatCvt              0      0.00%     81.82% # Type of FU issued
system.cpu0.iq.FU_type_0::SimdFloatDiv              0      0.00%     81.82% # Type of FU issued
system.cpu0.iq.FU_type_0::SimdFloatMisc             0      0.00%     81.82% # Type of FU issued
system.cpu0.iq.FU_type_0::SimdFloatMult             0      0.00%     81.82% # Type of FU issued
system.cpu0.iq.FU_type_0::SimdFloatMultAcc            0      0.00%     81.82% # Type of FU issued
system.cpu0.iq.FU_type_0::SimdFloatSqrt             0      0.00%     81.82% # Type of FU issued
system.cpu0.iq.FU_type_0::MemRead             8395181     11.95%     93.77% # Type of FU issued
system.cpu0.iq.FU_type_0::MemWrite            4022224      5.73%     99.50% # Type of FU issued
system.cpu0.iq.FU_type_0::FloatMemRead         278228      0.40%     99.89% # Type of FU issued
system.cpu0.iq.FU_type_0::FloatMemWrite         74542      0.11%    100.00% # Type of FU issued
system.cpu0.iq.FU_type_0::IprAccess                 0      0.00%    100.00% # Type of FU issued
system.cpu0.iq.FU_type_0::InstPrefetch              0      0.00%    100.00% # Type of FU issued
system.cpu0.iq.FU_type_0::total              70232615                       # Type of FU issued
system.cpu0.iq.rate                          2.300093                       # Inst issue rate
system.cpu0.iq.fu_busy_cnt                    1150373                       # FU busy when requested
system.cpu0.iq.fu_busy_rate                  0.016379                       # FU busy rate (busy events/executed inst)
system.cpu0.iq.int_inst_queue_reads         168294027                       # Number of integer instruction queue reads
system.cpu0.iq.int_inst_queue_writes         68490330                       # Number of integer instruction queue writes
system.cpu0.iq.int_inst_queue_wakeup_accesses     68208861                       # Number of integer instruction queue wakeup accesses
system.cpu0.iq.fp_inst_queue_reads            3807928                       # Number of floating instruction queue reads
system.cpu0.iq.fp_inst_queue_writes           1865747                       # Number of floating instruction queue writes
system.cpu0.iq.fp_inst_queue_wakeup_accesses      1842229                       # Number of floating instruction queue wakeup accesses
system.cpu0.iq.vec_inst_queue_reads                 0                       # Number of vector instruction queue reads
system.cpu0.iq.vec_inst_queue_writes                0                       # Number of vector instruction queue writes
system.cpu0.iq.vec_inst_queue_wakeup_accesses            0                       # Number of vector instruction queue wakeup accesses
system.cpu0.iq.int_alu_accesses              68835926                       # Number of integer alu accesses
system.cpu0.iq.fp_alu_accesses                1963504                       # Number of floating point alu accesses
system.cpu0.iq.vec_alu_accesses                     0                       # Number of vector alu accesses
system.cpu0.iew.lsq.thread0.forwLoads          928368                       # Number of loads that had data forwarded from stores
system.cpu0.iew.lsq.thread0.invAddrLoads            0                       # Number of loads ignored due to an invalid address
system.cpu0.iew.lsq.thread0.squashedLoads        28067                       # Number of loads squashed
system.cpu0.iew.lsq.thread0.ignoredResponses           57                       # Number of memory responses ignored because the instruction is squashed
system.cpu0.iew.lsq.thread0.memOrderViolation          247                       # Number of memory ordering violations
system.cpu0.iew.lsq.thread0.squashedStores        14117                       # Number of stores squashed
system.cpu0.iew.lsq.thread0.invAddrSwpfs            0                       # Number of software prefetches ignored due to an invalid address
system.cpu0.iew.lsq.thread0.blockedLoads            0                       # Number of blocked loads due to partial load-store forwarding
system.cpu0.iew.lsq.thread0.rescheduledLoads           18                       # Number of loads that were rescheduled
system.cpu0.iew.lsq.thread0.cacheBlocked       155122                       # Number of times an access to memory failed due to the cache being blocked
system.cpu0.iew.iewIdleCycles                       0                       # Number of cycles IEW is idle
system.cpu0.iew.iewSquashCycles                  8151                       # Number of cycles IEW is squashing
system.cpu0.iew.iewBlockCycles                3442365                       # Number of cycles IEW is blocking
system.cpu0.iew.iewUnblockCycles               572097                       # Number of cycles IEW is unblocking
system.cpu0.iew.iewDispatchedInsts           70151901                       # Number of instructions dispatched to IQ
system.cpu0.iew.iewDispSquashedInsts              604                       # Number of squashed instructions skipped by dispatch
system.cpu0.iew.iewDispLoadInsts              8527421                       # Number of dispatched load instructions
system.cpu0.iew.iewDispStoreInsts             4103674                       # Number of dispatched store instructions
system.cpu0.iew.iewDispNonSpecInsts               309                       # Number of dispatched non-speculative instructions
system.cpu0.iew.iewIQFullEvents                144099                       # Number of times the IQ has become full, causing a stall
system.cpu0.iew.iewLSQFullEvents               427895                       # Number of times the LSQ has become full, causing a stall
system.cpu0.iew.memOrderViolationEvents           247                       # Number of memory order violations
system.cpu0.iew.predictedTakenIncorrect          2459                       # Number of branches that were predicted taken incorrectly
system.cpu0.iew.predictedNotTakenIncorrect         7359                       # Number of branches that were predicted not taken incorrectly
system.cpu0.iew.branchMispredicts                9818                       # Number of branch mispredicts detected at execute
system.cpu0.iew.iewExecutedInsts             70214713                       # Number of executed instructions
system.cpu0.iew.iewExecLoadInsts              8669983                       # Number of load instructions executed
system.cpu0.iew.iewExecSquashedInsts            17904                       # Number of squashed instructions skipped in execute
system.cpu0.iew.exec_swp                            0                       # number of swp insts executed
system.cpu0.iew.exec_nop                            0                       # number of nop insts executed
system.cpu0.iew.exec_refs                    12765096                       # number of memory reference insts executed
system.cpu0.iew.exec_branches                 7680999                       # Number of branches executed
system.cpu0.iew.exec_stores                   4095113                       # Number of stores executed
system.cpu0.iew.exec_rate                    2.299506                       # Inst execution rate
system.cpu0.iew.wb_sent                      70054798                       # cumulative count of insts sent to commit
system.cpu0.iew.wb_count                     70051090                       # cumulative count of insts written-back
system.cpu0.iew.wb_producers                 53312261                       # num instructions producing a value
system.cpu0.iew.wb_consumers                104810923                       # num instructions consuming a value
system.cpu0.iew.wb_rate                      2.294148                       # insts written-back per cycle
system.cpu0.iew.wb_fanout                    0.508652                       # average fanout of values written-back
system.cpu0.commit.commitSquashedInsts         204124                       # The number of squashed insts skipped by commit
system.cpu0.commit.commitNonSpecStalls             91                       # The number of times commit has been forced to stall to communicate backwards
system.cpu0.commit.branchMispredicts             7958                       # The number of times a branch was mispredicted
system.cpu0.commit.committed_per_cycle::samples     30452588                       # Number of insts commited each cycle
system.cpu0.commit.committed_per_cycle::mean     2.296950                       # Number of insts commited each cycle
system.cpu0.commit.committed_per_cycle::stdev     3.052021                       # Number of insts commited each cycle
system.cpu0.commit.committed_per_cycle::underflows            0      0.00%      0.00% # Number of insts commited each cycle
system.cpu0.commit.committed_per_cycle::0     14966873     49.15%     49.15% # Number of insts commited each cycle
system.cpu0.commit.committed_per_cycle::1      3268606     10.73%     59.88% # Number of insts commited each cycle
system.cpu0.commit.committed_per_cycle::2      2396960      7.87%     67.75% # Number of insts commited each cycle
system.cpu0.commit.committed_per_cycle::3      2056623      6.75%     74.51% # Number of insts commited each cycle
system.cpu0.commit.committed_per_cycle::4       223046      0.73%     75.24% # Number of insts commited each cycle
system.cpu0.commit.committed_per_cycle::5      1454736      4.78%     80.02% # Number of insts commited each cycle
system.cpu0.commit.committed_per_cycle::6       289690      0.95%     80.97% # Number of insts commited each cycle
system.cpu0.commit.committed_per_cycle::7       556772      1.83%     82.80% # Number of insts commited each cycle
system.cpu0.commit.committed_per_cycle::8      5239282     17.20%    100.00% # Number of insts commited each cycle
system.cpu0.commit.committed_per_cycle::overflows            0      0.00%    100.00% # Number of insts commited each cycle
system.cpu0.commit.committed_per_cycle::min_value            0                       # Number of insts commited each cycle
system.cpu0.commit.committed_per_cycle::max_value            8                       # Number of insts commited each cycle
system.cpu0.commit.committed_per_cycle::total     30452588                       # Number of insts commited each cycle
system.cpu0.commit.committedInsts            32882687                       # Number of instructions committed
system.cpu0.commit.committedOps              69948059                       # Number of ops (including micro ops) committed
system.cpu0.commit.swp_count                        0                       # Number of s/w prefetches committed
system.cpu0.commit.refs                      12588919                       # Number of memory references committed
system.cpu0.commit.loads                      8499360                       # Number of loads committed
system.cpu0.commit.membars                         20                       # Number of memory barriers committed
system.cpu0.commit.branches                   7672988                       # Number of branches committed
system.cpu0.commit.vec_insts                        0                       # Number of committed Vector instructions.
system.cpu0.commit.fp_insts                   1838669                       # Number of committed floating point instructions.
system.cpu0.commit.int_insts                 68113064                       # Number of committed integer instructions.
system.cpu0.commit.function_calls              811910                       # Number of function calls committed.
system.cpu0.commit.op_class_0::No_OpClass       581520      0.83%      0.83% # Class of committed instruction
system.cpu0.commit.op_class_0::IntAlu        53568823     76.58%     77.42% # Class of committed instruction
system.cpu0.commit.op_class_0::IntMult             90      0.00%     77.42% # Class of committed instruction
system.cpu0.commit.op_class_0::IntDiv         1736949      2.48%     79.90% # Class of committed instruction
system.cpu0.commit.op_class_0::FloatAdd       1471758      2.10%     82.00% # Class of committed instruction
system.cpu0.commit.op_class_0::FloatCmp             0      0.00%     82.00% # Class of committed instruction
system.cpu0.commit.op_class_0::FloatCvt             0      0.00%     82.00% # Class of committed instruction
system.cpu0.commit.op_class_0::FloatMult            0      0.00%     82.00% # Class of committed instruction
system.cpu0.commit.op_class_0::FloatMultAcc            0      0.00%     82.00% # Class of committed instruction
system.cpu0.commit.op_class_0::FloatDiv             0      0.00%     82.00% # Class of committed instruction
system.cpu0.commit.op_class_0::FloatMisc            0      0.00%     82.00% # Class of committed instruction
system.cpu0.commit.op_class_0::FloatSqrt            0      0.00%     82.00% # Class of committed instruction
system.cpu0.commit.op_class_0::SimdAdd              0      0.00%     82.00% # Class of committed instruction
system.cpu0.commit.op_class_0::SimdAddAcc            0      0.00%     82.00% # Class of committed instruction
system.cpu0.commit.op_class_0::SimdAlu              0      0.00%     82.00% # Class of committed instruction
system.cpu0.commit.op_class_0::SimdCmp              0      0.00%     82.00% # Class of committed instruction
system.cpu0.commit.op_class_0::SimdCvt              0      0.00%     82.00% # Class of committed instruction
system.cpu0.commit.op_class_0::SimdMisc             0      0.00%     82.00% # Class of committed instruction
system.cpu0.commit.op_class_0::SimdMult             0      0.00%     82.00% # Class of committed instruction
system.cpu0.commit.op_class_0::SimdMultAcc            0      0.00%     82.00% # Class of committed instruction
system.cpu0.commit.op_class_0::SimdShift            0      0.00%     82.00% # Class of committed instruction
system.cpu0.commit.op_class_0::SimdShiftAcc            0      0.00%     82.00% # Class of committed instruction
system.cpu0.commit.op_class_0::SimdSqrt             0      0.00%     82.00% # Class of committed instruction
system.cpu0.commit.op_class_0::SimdFloatAdd            0      0.00%     82.00% # Class of committed instruction
system.cpu0.commit.op_class_0::SimdFloatAlu            0      0.00%     82.00% # Class of committed instruction
system.cpu0.commit.op_class_0::SimdFloatCmp            0      0.00%     82.00% # Class of committed instruction
system.cpu0.commit.op_class_0::SimdFloatCvt            0      0.00%     82.00% # Class of committed instruction
system.cpu0.commit.op_class_0::SimdFloatDiv            0      0.00%     82.00% # Class of committed instruction
system.cpu0.commit.op_class_0::SimdFloatMisc            0      0.00%     82.00% # Class of committed instruction
system.cpu0.commit.op_class_0::SimdFloatMult            0      0.00%     82.00% # Class of committed instruction
system.cpu0.commit.op_class_0::SimdFloatMultAcc            0      0.00%     82.00% # Class of committed instruction
system.cpu0.commit.op_class_0::SimdFloatSqrt            0      0.00%     82.00% # Class of committed instruction
system.cpu0.commit.op_class_0::MemRead        8223466     11.76%     93.76% # Class of committed instruction
system.cpu0.commit.op_class_0::MemWrite       4015609      5.74%     99.50% # Class of committed instruction
system.cpu0.commit.op_class_0::FloatMemRead       275894      0.39%     99.89% # Class of committed instruction
system.cpu0.commit.op_class_0::FloatMemWrite        73950      0.11%    100.00% # Class of committed instruction
system.cpu0.commit.op_class_0::IprAccess            0      0.00%    100.00% # Class of committed instruction
system.cpu0.commit.op_class_0::InstPrefetch            0      0.00%    100.00% # Class of committed instruction
system.cpu0.commit.op_class_0::total         69948059                       # Class of committed instruction
system.cpu0.commit.bw_lim_events              5239282                       # number cycles where commit BW limit reached
system.cpu0.rob.rob_reads                    95365489                       # The number of ROB reads
system.cpu0.rob.rob_writes                  140336569                       # The number of ROB writes
system.cpu0.timesIdled                            777                       # Number of times that the entire CPU went into an idle state and unscheduled itself
system.cpu0.idleCycles                          50350                       # Total number of cycles that the CPU has spent unscheduled due to idling
system.cpu0.committedInsts                   32882687                       # Number of Instructions Simulated
system.cpu0.committedOps                     69948059                       # Number of Ops (including micro ops) Simulated
system.cpu0.cpi                              0.928595                       # CPI: Cycles Per Instruction
system.cpu0.cpi_total                        0.928595                       # CPI: Total CPI of All Threads
system.cpu0.ipc                              1.076896                       # IPC: Instructions Per Cycle
system.cpu0.ipc_total                        1.076896                       # IPC: Total IPC of All Threads
system.cpu0.int_regfile_reads               108470457                       # number of integer regfile reads
system.cpu0.int_regfile_writes               60096514                       # number of integer regfile writes
system.cpu0.fp_regfile_reads                  3102262                       # number of floating regfile reads
system.cpu0.fp_regfile_writes                 1535352                       # number of floating regfile writes
system.cpu0.cc_regfile_reads                 45356400                       # number of cc regfile reads
system.cpu0.cc_regfile_writes                25035070                       # number of cc regfile writes
system.cpu0.misc_regfile_reads               26514280                       # number of misc regfile reads
system.cpu0.dcache.tags.pwrStateResidencyTicks::UNDEFINED  15267344125                       # Cumulative time (in ticks) in various power states
system.cpu0.dcache.tags.replacements           300389                       # number of replacements
system.cpu0.dcache.tags.tagsinuse                 512                       # Cycle average of tags in use
system.cpu0.dcache.tags.total_refs           12956900                       # Total number of references to valid blocks.
system.cpu0.dcache.tags.sampled_refs           300389                       # Sample count of references to valid blocks.
system.cpu0.dcache.tags.avg_refs            43.133737                       # Average number of references to valid blocks.
system.cpu0.dcache.tags.warmup_cycle                0                       # Cycle when the warmup percentage was hit.
system.cpu0.dcache.tags.occ_blocks::cpu0.data          512                       # Average occupied blocks per requestor
system.cpu0.dcache.tags.occ_percent::cpu0.data            1                       # Average percentage of cache occupancy
system.cpu0.dcache.tags.occ_percent::total            1                       # Average percentage of cache occupancy
system.cpu0.dcache.tags.occ_task_id_blocks::1024          512                       # Occupied blocks per task id
system.cpu0.dcache.tags.age_task_id_blocks_1024::0          512                       # Occupied blocks per task id
system.cpu0.dcache.tags.occ_task_id_percent::1024            1                       # Percentage of cache occupancy per task id
system.cpu0.dcache.tags.tag_accesses         47466009                       # Number of tag accesses
system.cpu0.dcache.tags.data_accesses        47466009                       # Number of data accesses
system.cpu0.dcache.pwrStateResidencyTicks::UNDEFINED  15267344125                       # Cumulative time (in ticks) in various power states
system.cpu0.dcache.ReadReq_hits::cpu0.data      7483769                       # number of ReadReq hits
system.cpu0.dcache.ReadReq_hits::total        7483769                       # number of ReadReq hits
system.cpu0.dcache.WriteReq_hits::cpu0.data      3937798                       # number of WriteReq hits
system.cpu0.dcache.WriteReq_hits::total       3937798                       # number of WriteReq hits
system.cpu0.dcache.demand_hits::cpu0.data     11421567                       # number of demand (read+write) hits
system.cpu0.dcache.demand_hits::total        11421567                       # number of demand (read+write) hits
system.cpu0.dcache.overall_hits::cpu0.data     11421567                       # number of overall hits
system.cpu0.dcache.overall_hits::total       11421567                       # number of overall hits
system.cpu0.dcache.ReadReq_misses::cpu0.data       218075                       # number of ReadReq misses
system.cpu0.dcache.ReadReq_misses::total       218075                       # number of ReadReq misses
system.cpu0.dcache.WriteReq_misses::cpu0.data       151763                       # number of WriteReq misses
system.cpu0.dcache.WriteReq_misses::total       151763                       # number of WriteReq misses
system.cpu0.dcache.demand_misses::cpu0.data       369838                       # number of demand (read+write) misses
system.cpu0.dcache.demand_misses::total        369838                       # number of demand (read+write) misses
system.cpu0.dcache.overall_misses::cpu0.data       369838                       # number of overall misses
system.cpu0.dcache.overall_misses::total       369838                       # number of overall misses
system.cpu0.dcache.ReadReq_miss_latency::cpu0.data   4438580500                       # number of ReadReq miss cycles
system.cpu0.dcache.ReadReq_miss_latency::total   4438580500                       # number of ReadReq miss cycles
system.cpu0.dcache.WriteReq_miss_latency::cpu0.data   4720674499                       # number of WriteReq miss cycles
system.cpu0.dcache.WriteReq_miss_latency::total   4720674499                       # number of WriteReq miss cycles
system.cpu0.dcache.demand_miss_latency::cpu0.data   9159254999                       # number of demand (read+write) miss cycles
system.cpu0.dcache.demand_miss_latency::total   9159254999                       # number of demand (read+write) miss cycles
system.cpu0.dcache.overall_miss_latency::cpu0.data   9159254999                       # number of overall miss cycles
system.cpu0.dcache.overall_miss_latency::total   9159254999                       # number of overall miss cycles
system.cpu0.dcache.ReadReq_accesses::cpu0.data      7701844                       # number of ReadReq accesses(hits+misses)
system.cpu0.dcache.ReadReq_accesses::total      7701844                       # number of ReadReq accesses(hits+misses)
system.cpu0.dcache.WriteReq_accesses::cpu0.data      4089561                       # number of WriteReq accesses(hits+misses)
system.cpu0.dcache.WriteReq_accesses::total      4089561                       # number of WriteReq accesses(hits+misses)
system.cpu0.dcache.demand_accesses::cpu0.data     11791405                       # number of demand (read+write) accesses
system.cpu0.dcache.demand_accesses::total     11791405                       # number of demand (read+write) accesses
system.cpu0.dcache.overall_accesses::cpu0.data     11791405                       # number of overall (read+write) accesses
system.cpu0.dcache.overall_accesses::total     11791405                       # number of overall (read+write) accesses
system.cpu0.dcache.ReadReq_miss_rate::cpu0.data     0.028315                       # miss rate for ReadReq accesses
system.cpu0.dcache.ReadReq_miss_rate::total     0.028315                       # miss rate for ReadReq accesses
system.cpu0.dcache.WriteReq_miss_rate::cpu0.data     0.037110                       # miss rate for WriteReq accesses
system.cpu0.dcache.WriteReq_miss_rate::total     0.037110                       # miss rate for WriteReq accesses
system.cpu0.dcache.demand_miss_rate::cpu0.data     0.031365                       # miss rate for demand accesses
system.cpu0.dcache.demand_miss_rate::total     0.031365                       # miss rate for demand accesses
system.cpu0.dcache.overall_miss_rate::cpu0.data     0.031365                       # miss rate for overall accesses
system.cpu0.dcache.overall_miss_rate::total     0.031365                       # miss rate for overall accesses
system.cpu0.dcache.ReadReq_avg_miss_latency::cpu0.data 20353.458672                       # average ReadReq miss latency
system.cpu0.dcache.ReadReq_avg_miss_latency::total 20353.458672                       # average ReadReq miss latency
system.cpu0.dcache.WriteReq_avg_miss_latency::cpu0.data 31105.569203                       # average WriteReq miss latency
system.cpu0.dcache.WriteReq_avg_miss_latency::total 31105.569203                       # average WriteReq miss latency
system.cpu0.dcache.demand_avg_miss_latency::cpu0.data 24765.586551                       # average overall miss latency
system.cpu0.dcache.demand_avg_miss_latency::total 24765.586551                       # average overall miss latency
system.cpu0.dcache.overall_avg_miss_latency::cpu0.data 24765.586551                       # average overall miss latency
system.cpu0.dcache.overall_avg_miss_latency::total 24765.586551                       # average overall miss latency
[...]
system.l2.demand_avg_miss_latency::cpu0.inst 101820.168067                       # average overall miss latency
system.l2.demand_avg_miss_latency::cpu0.data 82715.339717                       # average overall miss latency
system.l2.demand_avg_miss_latency::total 82899.913943                       # average overall miss latency
system.l2.overall_avg_miss_latency::cpu0.inst 101820.168067                       # average overall miss latency
system.l2.overall_avg_miss_latency::cpu0.data 82715.339717                       # average overall miss latency
system.l2.overall_avg_miss_latency::total 82899.913943                       # average overall miss latency
system.l2.blocked_cycles::no_mshrs                  0                       # number of cycles access was blocked
system.l2.blocked_cycles::no_targets                0                       # number of cycles access was blocked
system.l2.blocked::no_mshrs                         0                       # number of cycles access was blocked
system.l2.blocked::no_targets                       0                       # number of cycles access was blocked
system.l2.avg_blocked_cycles::no_mshrs            nan                       # average number of cycles each access was blocked
system.l2.avg_blocked_cycles::no_targets          nan                       # average number of cycles each access was blocked
system.l2.writebacks::writebacks                 9463                       # number of writebacks
system.l2.writebacks::total                      9463                       # number of writebacks
system.l2.UpgradeReq_mshr_misses::cpu0.data            4                       # number of UpgradeReq MSHR misses
system.l2.UpgradeReq_mshr_misses::total             4                       # number of UpgradeReq MSHR misses
system.l2.ReadExReq_mshr_misses::cpu0.data        38777                       # number of ReadExReq MSHR misses
system.l2.ReadExReq_mshr_misses::total          38777                       # number of ReadExReq MSHR misses
system.l2.ReadCleanReq_mshr_misses::cpu0.inst          595                       # number of ReadCleanReq MSHR misses
system.l2.ReadCleanReq_mshr_misses::total          595                       # number of ReadCleanReq MSHR misses
system.l2.ReadSharedReq_mshr_misses::cpu0.data        22215                       # number of ReadSharedReq MSHR misses
system.l2.ReadSharedReq_mshr_misses::total        22215                       # number of ReadSharedReq MSHR misses
system.l2.demand_mshr_misses::cpu0.inst           595                       # number of demand (read+write) MSHR misses
system.l2.demand_mshr_misses::cpu0.data         60992                       # number of demand (read+write) MSHR misses
system.l2.demand_mshr_misses::total             61587                       # number of demand (read+write) MSHR misses
system.l2.overall_mshr_misses::cpu0.inst          595                       # number of overall MSHR misses
system.l2.overall_mshr_misses::cpu0.data        60992                       # number of overall MSHR misses
system.l2.overall_mshr_misses::total            61587                       # number of overall MSHR misses
system.l2.UpgradeReq_mshr_miss_latency::cpu0.data        77000                       # number of UpgradeReq MSHR miss cycles
system.l2.UpgradeReq_mshr_miss_latency::total        77000                       # number of UpgradeReq MSHR miss cycles
system.l2.ReadExReq_mshr_miss_latency::cpu0.data   2766949000                       # number of ReadExReq MSHR miss cycles
system.l2.ReadExReq_mshr_miss_latency::total   2766949000                       # number of ReadExReq MSHR miss cycles
system.l2.ReadCleanReq_mshr_miss_latency::cpu0.inst     54633000                       # number of ReadCleanReq MSHR miss cycles
system.l2.ReadCleanReq_mshr_miss_latency::total     54633000                       # number of ReadCleanReq MSHR miss cycles
system.l2.ReadSharedReq_mshr_miss_latency::cpu0.data   1668105000                       # number of ReadSharedReq MSHR miss cycles
system.l2.ReadSharedReq_mshr_miss_latency::total   1668105000                       # number of ReadSharedReq MSHR miss cycles
system.l2.demand_mshr_miss_latency::cpu0.inst     54633000                       # number of demand (read+write) MSHR miss cycles
system.l2.demand_mshr_miss_latency::cpu0.data   4435054000                       # number of demand (read+write) MSHR miss cycles
system.l2.demand_mshr_miss_latency::total   4489687000                       # number of demand (read+write) MSHR miss cycles
system.l2.overall_mshr_miss_latency::cpu0.inst     54633000                       # number of overall MSHR miss cycles
system.l2.overall_mshr_miss_latency::cpu0.data   4435054000                       # number of overall MSHR miss cycles
system.l2.overall_mshr_miss_latency::total   4489687000                       # number of overall MSHR miss cycles
system.l2.UpgradeReq_mshr_miss_rate::cpu0.data            1                       # mshr miss rate for UpgradeReq accesses
system.l2.UpgradeReq_mshr_miss_rate::total            1                       # mshr miss rate for UpgradeReq accesses
system.l2.ReadExReq_mshr_miss_rate::cpu0.data     0.255522                       # mshr miss rate for ReadExReq accesses
system.l2.ReadExReq_mshr_miss_rate::total     0.255522                       # mshr miss rate for ReadExReq accesses
system.l2.ReadCleanReq_mshr_miss_rate::cpu0.inst     0.292240                       # mshr miss rate for ReadCleanReq accesses
system.l2.ReadCleanReq_mshr_miss_rate::total     0.292240                       # mshr miss rate for ReadCleanReq accesses
system.l2.ReadSharedReq_mshr_miss_rate::cpu0.data     0.149461                       # mshr miss rate for ReadSharedReq accesses
system.l2.ReadSharedReq_mshr_miss_rate::total     0.149461                       # mshr miss rate for ReadSharedReq accesses
system.l2.demand_mshr_miss_rate::cpu0.inst     0.292240                       # mshr miss rate for demand accesses
system.l2.demand_mshr_miss_rate::cpu0.data     0.203043                       # mshr miss rate for demand accesses
system.l2.demand_mshr_miss_rate::total       0.203643                       # mshr miss rate for demand accesses
system.l2.overall_mshr_miss_rate::cpu0.inst     0.292240                       # mshr miss rate for overall accesses
system.l2.overall_mshr_miss_rate::cpu0.data     0.203043                       # mshr miss rate for overall accesses
system.l2.overall_mshr_miss_rate::total      0.203643                       # mshr miss rate for overall accesses
system.l2.UpgradeReq_avg_mshr_miss_latency::cpu0.data        19250                       # average UpgradeReq mshr miss latency
system.l2.UpgradeReq_avg_mshr_miss_latency::total        19250                       # average UpgradeReq mshr miss latency
system.l2.ReadExReq_avg_mshr_miss_latency::cpu0.data 71355.416871                       # average ReadExReq mshr miss latency
system.l2.ReadExReq_avg_mshr_miss_latency::total 71355.416871                       # average ReadExReq mshr miss latency
system.l2.ReadCleanReq_avg_mshr_miss_latency::cpu0.inst 91820.168067                       # average ReadCleanReq mshr miss latency
system.l2.ReadCleanReq_avg_mshr_miss_latency::total 91820.168067                       # average ReadCleanReq mshr miss latency
system.l2.ReadSharedReq_avg_mshr_miss_latency::cpu0.data 75089.128967                       # average ReadSharedReq mshr miss latency
system.l2.ReadSharedReq_avg_mshr_miss_latency::total 75089.128967                       # average ReadSharedReq mshr miss latency
system.l2.demand_avg_mshr_miss_latency::cpu0.inst 91820.168067                       # average overall mshr miss latency
system.l2.demand_avg_mshr_miss_latency::cpu0.data 72715.339717                       # average overall mshr miss latency
system.l2.demand_avg_mshr_miss_latency::total 72899.913943                       # average overall mshr miss latency
system.l2.overall_avg_mshr_miss_latency::cpu0.inst 91820.168067                       # average overall mshr miss latency
system.l2.overall_avg_mshr_miss_latency::cpu0.data 72715.339717                       # average overall mshr miss latency
system.l2.overall_avg_mshr_miss_latency::total 72899.913943                       # average overall mshr miss latency
system.membus.snoop_filter.tot_requests        123541                       # Total number of requests made to the snoop filter.
system.membus.snoop_filter.hit_single_requests        61958                       # Number of requests hitting in the snoop filter with a single holder of the requested data.
system.membus.snoop_filter.hit_multi_requests            0                       # Number of requests hitting in the snoop filter with multiple (>1) holders of the requested data.
system.membus.snoop_filter.tot_snoops               0                       # Total number of snoops made to the snoop filter.
system.membus.snoop_filter.hit_single_snoops            0                       # Number of snoops hitting in the snoop filter with a single holder of the requested data.
system.membus.snoop_filter.hit_multi_snoops            0                       # Number of snoops hitting in the snoop filter with multiple (>1) holders of the requested data.
system.membus.pwrStateResidencyTicks::UNDEFINED  15267344125                       # Cumulative time (in ticks) in various power states
system.membus.trans_dist::ReadResp              22810                       # Transaction distribution
system.membus.trans_dist::WritebackDirty         9463                       # Transaction distribution
system.membus.trans_dist::CleanEvict            52487                       # Transaction distribution
system.membus.trans_dist::UpgradeReq                5                       # Transaction distribution
system.membus.trans_dist::ReadExReq             38776                       # Transaction distribution
system.membus.trans_dist::ReadExResp            38776                       # Transaction distribution
system.membus.trans_dist::ReadSharedReq         22810                       # Transaction distribution
system.membus.pkt_count_system.l2.mem_side::system.mem_ctrls.port       185127                       # Packet count per connected master and slave (bytes)
system.membus.pkt_count_system.l2.mem_side::total       185127                       # Packet count per connected master and slave (bytes)
system.membus.pkt_count::total                 185127                       # Packet count per connected master and slave (bytes)
system.membus.pkt_size_system.l2.mem_side::system.mem_ctrls.port      4547136                       # Cumulative packet size per connected master and slave (bytes)
system.membus.pkt_size_system.l2.mem_side::total      4547136                       # Cumulative packet size per connected master and slave (bytes)
system.membus.pkt_size::total                 4547136                       # Cumulative packet size per connected master and slave (bytes)
system.membus.snoops                                0                       # Total snoops (count)
system.membus.snoopTraffic                          0                       # Total snoop traffic (bytes)
system.membus.snoop_fanout::samples             61591                       # Request fanout histogram
system.membus.snoop_fanout::mean                    0                       # Request fanout histogram
system.membus.snoop_fanout::stdev                   0                       # Request fanout histogram
system.membus.snoop_fanout::underflows              0      0.00%      0.00% # Request fanout histogram
system.membus.snoop_fanout::0                   61591    100.00%    100.00% # Request fanout histogram
system.membus.snoop_fanout::1                       0      0.00%    100.00% # Request fanout histogram
system.membus.snoop_fanout::overflows               0      0.00%    100.00% # Request fanout histogram
system.membus.snoop_fanout::min_value               0                       # Request fanout histogram
system.membus.snoop_fanout::max_value               0                       # Request fanout histogram
system.membus.snoop_fanout::total               61591                       # Request fanout histogram
system.membus.reqLayer12.occupancy          168976000                       # Layer occupancy (ticks)
system.membus.reqLayer12.utilization              1.1                       # Layer utilization (%)
system.membus.respLayer1.occupancy          325017750                       # Layer occupancy (ticks)
system.membus.respLayer1.utilization              2.1                       # Layer utilization (%)
system.tol2bus.snoop_filter.tot_requests       604854                       # Total number of requests made to the snoop filter.
system.tol2bus.snoop_filter.hit_single_requests       302427                       # Number of requests hitting in the snoop filter with a single holder of the requested data.
system.tol2bus.snoop_filter.hit_multi_requests           56                       # Number of requests hitting in the snoop filter with multiple (>1) holders of the requested data.
system.tol2bus.snoop_filter.tot_snoops             35                       # Total number of snoops made to the snoop filter.
system.tol2bus.snoop_filter.hit_single_snoops           35                       # Number of snoops hitting in the snoop filter with a single holder of the requested data.
system.tol2bus.snoop_filter.hit_multi_snoops            0                       # Number of snoops hitting in the snoop filter with multiple (>1) holders of the requested data.
system.tol2bus.pwrStateResidencyTicks::UNDEFINED  15267344125                       # Cumulative time (in ticks) in various power states
system.tol2bus.trans_dist::ReadResp            150670                       # Transaction distribution
system.tol2bus.trans_dist::WritebackDirty       161266                       # Transaction distribution
system.tol2bus.trans_dist::WritebackClean         2035                       # Transaction distribution
system.tol2bus.trans_dist::CleanEvict          201108                       # Transaction distribution
system.tol2bus.trans_dist::UpgradeReq               4                       # Transaction distribution
system.tol2bus.trans_dist::UpgradeResp              4                       # Transaction distribution
system.tol2bus.trans_dist::ReadExReq           151756                       # Transaction distribution
system.tol2bus.trans_dist::ReadExResp          151755                       # Transaction distribution
system.tol2bus.trans_dist::ReadCleanReq          2036                       # Transaction distribution
system.tol2bus.trans_dist::ReadSharedReq       148634                       # Transaction distribution
system.tol2bus.pkt_count_system.cpu0.icache.mem_side::system.l2.cpu_side         6107                       # Packet count per connected master and slave (bytes)
system.tol2bus.pkt_count_system.cpu0.dcache.mem_side::system.l2.cpu_side       901176                       # Packet count per connected master and slave (bytes)
system.tol2bus.pkt_count::total                907283                       # Packet count per connected master and slave (bytes)
system.tol2bus.pkt_size_system.cpu0.icache.mem_side::system.l2.cpu_side       260544                       # Cumulative packet size per connected master and slave (bytes)
system.tol2bus.pkt_size_system.cpu0.dcache.mem_side::system.l2.cpu_side     28940288                       # Cumulative packet size per connected master and slave (bytes)
system.tol2bus.pkt_size::total               29200832                       # Cumulative packet size per connected master and slave (bytes)
system.tol2bus.snoops                           61985                       # Total snoops (count)
system.tol2bus.snoopTraffic                    605632                       # Total snoop traffic (bytes)
system.tol2bus.snoop_fanout::samples           364415                       # Request fanout histogram
system.tol2bus.snoop_fanout::mean            0.000247                       # Request fanout histogram
system.tol2bus.snoop_fanout::stdev           0.015713                       # Request fanout histogram
system.tol2bus.snoop_fanout::underflows             0      0.00%      0.00% # Request fanout histogram
system.tol2bus.snoop_fanout::0                 364325     99.98%     99.98% # Request fanout histogram
system.tol2bus.snoop_fanout::1                     90      0.02%    100.00% # Request fanout histogram
system.tol2bus.snoop_fanout::2                      0      0.00%    100.00% # Request fanout histogram
system.tol2bus.snoop_fanout::3                      0      0.00%    100.00% # Request fanout histogram
system.tol2bus.snoop_fanout::4                      0      0.00%    100.00% # Request fanout histogram
system.tol2bus.snoop_fanout::5                      0      0.00%    100.00% # Request fanout histogram
system.tol2bus.snoop_fanout::6                      0      0.00%    100.00% # Request fanout histogram
system.tol2bus.snoop_fanout::7                      0      0.00%    100.00% # Request fanout histogram
system.tol2bus.snoop_fanout::8                      0      0.00%    100.00% # Request fanout histogram
system.tol2bus.snoop_fanout::9                      0      0.00%    100.00% # Request fanout histogram
system.tol2bus.snoop_fanout::10                     0      0.00%    100.00% # Request fanout histogram
system.tol2bus.snoop_fanout::11                     0      0.00%    100.00% # Request fanout histogram
system.tol2bus.snoop_fanout::12                     0      0.00%    100.00% # Request fanout histogram
system.tol2bus.snoop_fanout::13                     0      0.00%    100.00% # Request fanout histogram
system.tol2bus.snoop_fanout::14                     0      0.00%    100.00% # Request fanout histogram
system.tol2bus.snoop_fanout::15                     0      0.00%    100.00% # Request fanout histogram
system.tol2bus.snoop_fanout::16                     0      0.00%    100.00% # Request fanout histogram
system.tol2bus.snoop_fanout::17                     0      0.00%    100.00% # Request fanout histogram
system.tol2bus.snoop_fanout::18                     0      0.00%    100.00% # Request fanout histogram
system.tol2bus.snoop_fanout::19                     0      0.00%    100.00% # Request fanout histogram
system.tol2bus.snoop_fanout::20                     0      0.00%    100.00% # Request fanout histogram
system.tol2bus.snoop_fanout::21                     0      0.00%    100.00% # Request fanout histogram
system.tol2bus.snoop_fanout::22                     0      0.00%    100.00% # Request fanout histogram
system.tol2bus.snoop_fanout::23                     0      0.00%    100.00% # Request fanout histogram
system.tol2bus.snoop_fanout::24                     0      0.00%    100.00% # Request fanout histogram
system.tol2bus.snoop_fanout::overflows              0      0.00%    100.00% # Request fanout histogram
system.tol2bus.snoop_fanout::min_value              0                       # Request fanout histogram
system.tol2bus.snoop_fanout::max_value              1                       # Request fanout histogram
system.tol2bus.snoop_fanout::total             364415                       # Request fanout histogram
system.tol2bus.reqLayer0.occupancy          456265000                       # Layer occupancy (ticks)
system.tol2bus.reqLayer0.utilization              3.0                       # Layer utilization (%)
system.tol2bus.respLayer0.occupancy           3058491                       # Layer occupancy (ticks)
system.tol2bus.respLayer0.utilization             0.0                       # Layer utilization (%)
system.tol2bus.respLayer1.occupancy         450587995                       # Layer occupancy (ticks)
system.tol2bus.respLayer1.utilization             3.0                       # Layer utilization (%)

---------- End Simulation Statistics   ----------
