
---------- Begin Simulation Statistics ----------
sim_seconds                                  0.015267                       # Number of seconds simulated
sim_ticks                                 15267344125                       # Number of ticks simulated
final_tick                               2610715845375                       # Number of ticks from beginning of simulation (restored from checkpoints and never reset)
sim_freq                                 1000000000000                       # Frequency of simulated ticks
host_inst_rate                               30908194                       # Simulator instruction rate (inst/s)
host_op_rate                                 57183385                       # Simulator op (including micro ops) rate (op/s)
host_tick_rate                               86302681                       # Simulator tick rate (ticks/s)
host_mem_usage                                3428876                       # Number of bytes of host memory used
host_seconds                                   176.91                       # Real time elapsed on the host
sim_insts                                  5467801520                       # Number of instructions simulated
sim_ops                                   10116004783                       # Number of ops (including micro ops) simulated
system.voltage_domain.voltage                       1                       # Voltage in Volts
system.clk_domain.clock                          1000                       # Clock period in ticks
system.mem_ctrls.pwrStateResidencyTicks::UNDEFINED  15267344125                       # Cumulative time (in ticks) in various power states
system.mem_ctrls.bytes_read::cpu0.inst            512                       # Number of bytes read from this memory
system.mem_ctrls.bytes_read::cpu0.data         568768                       # Number of bytes read from this memory
system.mem_ctrls.bytes_read::total             569280                       # Number of bytes read from this memory
system.mem_ctrls.bytes_inst_read::cpu0.inst          512                       # Number of instructions bytes read from this memory
system.mem_ctrls.bytes_inst_read::total           512                       # Number of instructions bytes read from this memory
system.mem_ctrls.bytes_written::writebacks        42432                       # Number of bytes written to this memory
system.mem_ctrls.bytes_written::total           42432                       # Number of bytes written to this memory
system.mem_ctrls.num_reads::cpu0.inst               8                       # Number of read requests responded to by this memory
system.mem_ctrls.num_reads::cpu0.data            8887                       # Number of read requests responded to by this memory
system.mem_ctrls.num_reads::total                8895                       # Number of read requests responded to by this memory
system.mem_ctrls.num_writes::writebacks           663                       # Number of write requests responded to by this memory
system.mem_ctrls.num_writes::total                663                       # Number of write requests responded to by this memory
system.mem_ctrls.bw_read::cpu0.inst             33536                       # Total read bandwidth from this memory (bytes/s)
system.mem_ctrls.bw_read::cpu0.data          37253893                       # Total read bandwidth from this memory (bytes/s)
system.mem_ctrls.bw_read::total              37287428                       # Total read bandwidth from this memory (bytes/s)
system.mem_ctrls.bw_inst_read::cpu0.inst        33536                       # Instruction read bandwidth from this memory (bytes/s)
system.mem_ctrls.bw_inst_read::total            33536                       # Instruction read bandwidth from this memory (bytes/s)
system.mem_ctrls.bw_write::writebacks         2779265                       # Write bandwidth from this memory (bytes/s)
system.mem_ctrls.bw_write::total              2779265                       # Write bandwidth from this memory (bytes/s)
system.mem_ctrls.bw_total::writebacks         2779265                       # Total bandwidth to/from this memory (bytes/s)
system.mem_ctrls.bw_total::cpu0.inst            33536                       # Total bandwidth to/from this memory (bytes/s)
system.mem_ctrls.bw_total::cpu0.data         37253893                       # Total bandwidth to/from this memory (bytes/s)
system.mem_ctrls.bw_total::total             40066694                       # Total bandwidth to/from this memory (bytes/s)
system.mem_ctrls.readReqs                        8895                       # Number of read requests accepted
system.mem_ctrls.writeReqs                        663                       # Number of write requests accepted
system.mem_ctrls.readBursts                      8895                       # Number of DRAM read bursts, including those serviced by the write queue
system.mem_ctrls.writeBursts                      663                       # Number of DRAM write bursts, including those merged in the write queue
system.mem_ctrls.bytesReadDRAM                 569280                       # Total number of bytes read from DRAM
system.mem_ctrls.bytesReadWrQ                       0                       # Total number of bytes read from write queue
system.mem_ctrls.bytesWritten                   42112                       # Total number of bytes written to DRAM
system.mem_ctrls.bytesReadSys                  569280                       # Total read bytes from the system interface side
system.mem_ctrls.bytesWrittenSys                42432                       # Total written bytes from the system interface side
system.mem_ctrls.servicedByWrQ                      0                       # Number of DRAM read bursts serviced by the write queue
system.mem_ctrls.mergedWrBursts                     0                       # Number of DRAM write bursts merged with an existing one
system.mem_ctrls.neitherReadNorWriteReqs            0                       # Number of requests that are neither read nor write
system.mem_ctrls.perBankRdBursts::0               539                       # Per bank write bursts
system.mem_ctrls.perBankRdBursts::1               571                       # Per bank write bursts
system.mem_ctrls.perBankRdBursts::2               552                       # Per bank write bursts
system.mem_ctrls.perBankRdBursts::3               578                       # Per bank write bursts
system.mem_ctrls.perBankRdBursts::4               570                       # Per bank write bursts
system.mem_ctrls.perBankRdBursts::5               548                       # Per bank write bursts
system.mem_ctrls.perBankRdBursts::6               501                       # Per bank write bursts
system.mem_ctrls.perBankRdBursts::7               517                       # Per bank write bursts
system.mem_ctrls.perBankRdBursts::8               496                       # Per bank write bursts
system.mem_ctrls.perBankRdBursts::9               501                       # Per bank write bursts
system.mem_ctrls.perBankRdBursts::10              555                       # Per bank write bursts
system.mem_ctrls.perBankRdBursts::11              628                       # Per bank write bursts
system.mem_ctrls.perBankRdBursts::12              658                       # Per bank write bursts
system.mem_ctrls.perBankRdBursts::13              673                       # Per bank write bursts
system.mem_ctrls.perBankRdBursts::14              496                       # Per bank write bursts
system.mem_ctrls.perBankRdBursts::15              512                       # Per bank write bursts
system.mem_ctrls.perBankWrBursts::0               123                       # Per bank write bursts
system.mem_ctrls.perBankWrBursts::1                54                       # Per bank write bursts
system.mem_ctrls.perBankWrBursts::2                 7                       # Per bank write bursts
system.mem_ctrls.perBankWrBursts::3                15                       # Per bank write bursts
system.mem_ctrls.perBankWrBursts::4                63                       # Per bank write bursts
system.mem_ctrls.perBankWrBursts::5                30                       # Per bank write bursts
system.mem_ctrls.perBankWrBursts::6                25                       # Per bank write bursts
system.mem_ctrls.perBankWrBursts::7                25                       # Per bank write bursts
system.mem_ctrls.perBankWrBursts::8                 1                       # Per bank write bursts
system.mem_ctrls.perBankWrBursts::9                 2                       # Per bank write bursts
system.mem_ctrls.perBankWrBursts::10                7                       # Per bank write bursts
system.mem_ctrls.perBankWrBursts::11                3                       # Per bank write bursts
system.mem_ctrls.perBankWrBursts::12                3                       # Per bank write bursts
system.mem_ctrls.perBankWrBursts::13               43                       # Per bank write bursts
system.mem_ctrls.perBankWrBursts::14              128                       # Per bank write bursts
system.mem_ctrls.perBankWrBursts::15              129                       # Per bank write bursts
system.mem_ctrls.numRdRetry                         0                       # Number of times read queue was full causing retry
system.mem_ctrls.numWrRetry                         0                       # Number of times write queue was full causing retry
system.mem_ctrls.totGap                   15267054500                       # Total gap between requests
system.mem_ctrls.readPktSize::0                     0                       # Read request sizes (log2)
system.mem_ctrls.readPktSize::1                     0                       # Read request sizes (log2)
system.mem_ctrls.readPktSize::2                     0                       # Read request sizes (log2)
system.mem_ctrls.readPktSize::3                     0                       # Read request sizes (log2)
system.mem_ctrls.readPktSize::4                     0                       # Read request sizes (log2)
system.mem_ctrls.readPktSize::5                     0                       # Read request sizes (log2)
system.mem_ctrls.readPktSize::6                  8895                       # Read request sizes (log2)
system.mem_ctrls.writePktSize::0                    0                       # Write request sizes (log2)
system.mem_ctrls.writePktSize::1                    0                       # Write request sizes (log2)
system.mem_ctrls.writePktSize::2                    0                       # Write request sizes (log2)
system.mem_ctrls.writePktSize::3                    0                       # Write request sizes (log2)
system.mem_ctrls.writePktSize::4                    0                       # Write request sizes (log2)
system.mem_ctrls.writePktSize::5                    0                       # Write request sizes (log2)
system.mem_ctrls.writePktSize::6                  663                       # Write request sizes (log2)
system.mem_ctrls.rdQLenPdf::0                    8241                       # What read queue length does an incoming req see
system.mem_ctrls.rdQLenPdf::1                     583                       # What read queue length does an incoming req see
system.mem_ctrls.rdQLenPdf::2                      71                       # What read queue length does an incoming req see
system.mem_ctrls.rdQLenPdf::3                       0                       # What read queue length does an incoming req see
system.mem_ctrls.rdQLenPdf::4                       0                       # What read queue length does an incoming req see
system.mem_ctrls.rdQLenPdf::5                       0                       # What read queue length does an incoming req see
system.mem_ctrls.rdQLenPdf::6                       0                       # What read queue length does an incoming req see
system.mem_ctrls.rdQLenPdf::7                       0                       # What read queue length does an incoming req see
system.mem_ctrls.rdQLenPdf::8                       0                       # What read queue length does an incoming req see
system.mem_ctrls.rdQLenPdf::9                       0                       # What read queue length does an incoming req see
system.mem_ctrls.rdQLenPdf::10                      0                       # What read queue length does an incoming req see
system.mem_ctrls.rdQLenPdf::11                      0                       # What read queue length does an incoming req see
system.mem_ctrls.rdQLenPdf::12                      0                       # What read queue length does an incoming req see
system.mem_ctrls.rdQLenPdf::13                      0                       # What read queue length does an incoming req see
system.mem_ctrls.rdQLenPdf::14                      0                       # What read queue length does an incoming req see
system.mem_ctrls.rdQLenPdf::15                      0                       # What read queue length does an incoming req see
system.mem_ctrls.rdQLenPdf::16                      0                       # What read queue length does an incoming req see
system.mem_ctrls.rdQLenPdf::17                      0                       # What read queue length does an incoming req see
system.mem_ctrls.rdQLenPdf::18                      0                       # What read queue length does an incoming req see
system.mem_ctrls.rdQLenPdf::19                      0                       # What read queue length does an incoming req see
system.mem_ctrls.rdQLenPdf::20                      0                       # What read queue length does an incoming req see
system.mem_ctrls.rdQLenPdf::21                      0                       # What read queue length does an incoming req see
system.mem_ctrls.rdQLenPdf::22                      0                       # What read queue length does an incoming req see
system.mem_ctrls.rdQLenPdf::23                      0                       # What read queue length does an incoming req see
system.mem_ctrls.rdQLenPdf::24                      0                       # What read queue length does an incoming req see
system.mem_ctrls.rdQLenPdf::25                      0                       # What read queue length does an incoming req see
system.mem_ctrls.rdQLenPdf::26                      0                       # What read queue length does an incoming req see
system.mem_ctrls.rdQLenPdf::27                      0                       # What read queue length does an incoming req see
system.mem_ctrls.rdQLenPdf::28                      0                       # What read queue length does an incoming req see
system.mem_ctrls.rdQLenPdf::29                      0                       # What read queue length does an incoming req see
system.mem_ctrls.rdQLenPdf::30                      0                       # What read queue length does an incoming req see
system.mem_ctrls.rdQLenPdf::31                      0                       # What read queue length does an incoming req see
system.mem_ctrls.wrQLenPdf::0                       0                       # What write queue length does an incoming req see
system.mem_ctrls.wrQLenPdf::1                       0                       # What write queue length does an incoming req see
system.mem_ctrls.wrQLenPdf::2                       0                       # What write queue length does an incoming req see
system.mem_ctrls.wrQLenPdf::3                       0                       # What write queue length does an incoming req see
system.mem_ctrls.wrQLenPdf::4                       0                       # What write queue length does an incoming req see
system.mem_ctrls.wrQLenPdf::5                       0                       # What write queue length does an incoming req see
system.mem_ctrls.wrQLenPdf::6                       0                       # What write queue length does an incoming req see
system.mem_ctrls.wrQLenPdf::7                       0                       # What write queue length does an incoming req see
system.mem_ctrls.wrQLenPdf::8                       0                       # What write queue length does an incoming req see
system.mem_ctrls.wrQLenPdf::9                       0                       # What write queue length does an incoming req see
system.mem_ctrls.wrQLenPdf::10                      0                       # What write queue length does an incoming req see
system.mem_ctrls.wrQLenPdf::11                      0                       # What write queue length does an incoming req see
system.mem_ctrls.wrQLenPdf::12                      0                       # What write queue length does an incoming req see
system.mem_ctrls.wrQLenPdf::13                      0                       # What write queue length does an incoming req see
system.mem_ctrls.wrQLenPdf::14                      0                       # What write queue length does an incoming req see
system.mem_ctrls.wrQLenPdf::15                     33                       # What write queue length does an incoming req see
system.mem_ctrls.wrQLenPdf::16                     33                       # What write queue length does an incoming req see
system.mem_ctrls.wrQLenPdf::17                     37                       # What write queue length does an incoming req see
system.mem_ctrls.wrQLenPdf::18                     37                       # What write queue length does an incoming req see
system.mem_ctrls.wrQLenPdf::19                     37                       # What write queue length does an incoming req see
system.mem_ctrls.wrQLenPdf::20                     37                       # What write queue length does an incoming req see
system.mem_ctrls.wrQLenPdf::21                     37                       # What write queue length does an incoming req see
system.mem_ctrls.wrQLenPdf::22                     37                       # What write queue length does an incoming req see
system.mem_ctrls.wrQLenPdf::23                     37                       # What write queue length does an incoming req see
system.mem_ctrls.wrQLenPdf::24                     37                       # What write queue length does an incoming req see
system.mem_ctrls.wrQLenPdf::25                     38                       # What write queue length does an incoming req see
system.mem_ctrls.wrQLenPdf::26                     38                       # What write queue length does an incoming req see
system.mem_ctrls.wrQLenPdf::27                     38                       # What write queue length does an incoming req see
system.mem_ctrls.wrQLenPdf::28                     38                       # What write queue length does an incoming req see
system.mem_ctrls.wrQLenPdf::29                     38                       # What write queue length does an incoming req see
system.mem_ctrls.wrQLenPdf::30                     37                       # What write queue length does an incoming req see
system.mem_ctrls.wrQLenPdf::31                     37                       # What write queue length does an incoming req see
system.mem_ctrls.wrQLenPdf::32                     37                       # What write queue length does an incoming req see
system.mem_ctrls.wrQLenPdf::33                      0                       # What write queue length does an incoming req see
system.mem_ctrls.wrQLenPdf::34                      0                       # What write queue length does an incoming req see
system.mem_ctrls.wrQLenPdf::35                      0                       # What write queue length does an incoming req see
system.mem_ctrls.wrQLenPdf::36                      0                       # What write queue length does an incoming req see
system.mem_ctrls.wrQLenPdf::37                      0                       # What write queue length does an incoming req see
system.mem_ctrls.wrQLenPdf::38                      0                       # What write queue length does an incoming req see
system.mem_ctrls.wrQLenPdf::39                      0                       # What write queue length does an incoming req see
system.mem_ctrls.wrQLenPdf::40                      0                       # What write queue length does an incoming req see
system.mem_ctrls.wrQLenPdf::41                      0                       # What write queue length does an incoming req see
system.mem_ctrls.wrQLenPdf::42                      0                       # What write queue length does an incoming req see
system.mem_ctrls.wrQLenPdf::43                      0                       # What write queue length does an incoming req see
system.mem_ctrls.wrQLenPdf::44                      0                       # What write queue length does an incoming req see
system.mem_ctrls.wrQLenPdf::45                      0                       # What write queue length does an incoming req see
system.mem_ctrls.wrQLenPdf::46                      0                       # What write queue length does an incoming req see
system.mem_ctrls.wrQLenPdf::47                      0                       # What write queue length does an incoming req see
system.mem_ctrls.wrQLenPdf::48                      0                       # What write queue length does an incoming req see
system.mem_ctrls.wrQLenPdf::49                      0                       # What write queue length does an incoming req see
system.mem_ctrls.wrQLenPdf::50                      0                       # What write queue length does an incoming req see
system.mem_ctrls.wrQLenPdf::51                      0                       # What write queue length does an incoming req see
system.mem_ctrls.wrQLenPdf::52                      0                       # What write queue length does an incoming req see
system.mem_ctrls.wrQLenPdf::53                      0                       # What write queue length does an incoming req see
system.mem_ctrls.wrQLenPdf::54                      0                       # What write queue length does an incoming req see
system.mem_ctrls.wrQLenPdf::55                      0                       # What write queue length does an incoming req see
system.mem_ctrls.wrQLenPdf::56                      0                       # What write queue length does an incoming req see
system.mem_ctrls.wrQLenPdf::57                      0                       # What write queue length does an incoming req see
system.mem_ctrls.wrQLenPdf::58                      0                       # What write queue length does an incoming req see
system.mem_ctrls.wrQLenPdf::59                      0                       # What write queue length does an incoming req see
system.mem_ctrls.wrQLenPdf::60                      0                       # What write queue length does an incoming req see
system.mem_ctrls.wrQLenPdf::61                      0                       # What write queue length does an incoming req see
system.mem_ctrls.wrQLenPdf::62                      0                       # What write queue length does an incoming req see
system.mem_ctrls.wrQLenPdf::63                      0                       # What write queue length does an incoming req see
system.mem_ctrls.bytesPerActivate::samples         5665                       # Bytes accessed per row activation
system.mem_ctrls.bytesPerActivate::mean    107.879259                       # Bytes accessed per row activation
system.mem_ctrls.bytesPerActivate::gmean    94.361066                       # Bytes accessed per row activation
system.mem_ctrls.bytesPerActivate::stdev    81.037688                       # Bytes accessed per row activation
system.mem_ctrls.bytesPerActivate::0-127         3086     54.47%     54.47% # Bytes accessed per row activation
system.mem_ctrls.bytesPerActivate::128-255         2487     43.90%     98.38% # Bytes accessed per row activation
system.mem_ctrls.bytesPerActivate::256-383           50      0.88%     99.26% # Bytes accessed per row activation
system.mem_ctrls.bytesPerActivate::384-511            5      0.09%     99.35% # Bytes accessed per row activation
system.mem_ctrls.bytesPerActivate::512-639            4      0.07%     99.42% # Bytes accessed per row activation
system.mem_ctrls.bytesPerActivate::640-767            4      0.07%     99.49% # Bytes accessed per row activation
system.mem_ctrls.bytesPerActivate::768-895            5      0.09%     99.58% # Bytes accessed per row activation
system.mem_ctrls.bytesPerActivate::896-1023            6      0.11%     99.68% # Bytes accessed per row activation
system.mem_ctrls.bytesPerActivate::1024-1151           18      0.32%    100.00% # Bytes accessed per row activation
system.mem_ctrls.bytesPerActivate::total         5665                       # Bytes accessed per row activation
system.mem_ctrls.rdPerTurnAround::samples           37                       # Reads before turning the bus around for writes
system.mem_ctrls.rdPerTurnAround::mean     245.567568                       # Reads before turning the bus around for writes
system.mem_ctrls.rdPerTurnAround::gmean    104.231021                       # Reads before turning the bus around for writes
system.mem_ctrls.rdPerTurnAround::stdev    559.491065                       # Reads before turning the bus around for writes
system.mem_ctrls.rdPerTurnAround::0-127            23     62.16%     62.16% # Reads before turning the bus around for writes
system.mem_ctrls.rdPerTurnAround::128-255            5     13.51%     75.68% # Reads before turning the bus around for writes
system.mem_ctrls.rdPerTurnAround::256-383            4     10.81%     86.49% # Reads before turning the bus around for writes
system.mem_ctrls.rdPerTurnAround::384-511            2      5.41%     91.89% # Reads before turning the bus around for writes
system.mem_ctrls.rdPerTurnAround::512-639            1      2.70%     94.59% # Reads before turning the bus around for writes
system.mem_ctrls.rdPerTurnAround::1024-1151            1      2.70%     97.30% # Reads before turning the bus around for writes
system.mem_ctrls.rdPerTurnAround::3200-3327            1      2.70%    100.00% # Reads before turning the bus around for writes
system.mem_ctrls.rdPerTurnAround::total            37                       # Reads before turning the bus around for writes
system.mem_ctrls.wrPerTurnAround::samples           37                       # Writes before turning the bus around for reads
system.mem_ctrls.wrPerTurnAround::mean      17.783784                       # Writes before turning the bus around for reads
system.mem_ctrls.wrPerTurnAround::gmean     17.772254                       # Writes before turning the bus around for reads
system.mem_ctrls.wrPerTurnAround::stdev      0.629600                       # Writes before turning the bus around for reads
system.mem_ctrls.wrPerTurnAround::16                4     10.81%     10.81% # Writes before turning the bus around for reads
system.mem_ctrls.wrPerTurnAround::18               33     89.19%    100.00% # Writes before turning the bus around for reads
system.mem_ctrls.wrPerTurnAround::total            37                       # Writes before turning the bus around for reads
system.mem_ctrls.totQLat                    353654500                       # Total ticks spent queuing
system.mem_ctrls.totMemAccLat               520435750                       # Total ticks spent from burst creation until serviced by the DRAM
system.mem_ctrls.totBusLat                   44475000                       # Total ticks spent in databus transfers
system.mem_ctrls.avgQLat                     39758.80                       # Average queueing delay per DRAM burst
system.mem_ctrls.avgBusLat                    5000.00                       # Average bus latency per DRAM burst
system.mem_ctrls.avgMemAccLat                58508.80                       # Average memory access latency per DRAM burst
system.mem_ctrls.avgRdBW                        37.29                       # Average DRAM read bandwidth in MiByte/s
system.mem_ctrls.avgWrBW                         2.76                       # Average achieved write bandwidth in MiByte/s
system.mem_ctrls.avgRdBWSys                     37.29                       # Average system read bandwidth in MiByte/s
system.mem_ctrls.avgWrBWSys                      2.78                       # Average system write bandwidth in MiByte/s
system.mem_ctrls.peakBW                      12800.00                       # Theoretical peak bandwidth in MiByte/s
system.mem_ctrls.busUtil                         0.31                       # Data bus utilization in percentage
system.mem_ctrls.busUtilRead                     0.29                       # Data bus utilization in percentage for reads
system.mem_ctrls.busUtilWrite                    0.02                       # Data bus utilization in percentage for writes
system.mem_ctrls.avgRdQLen                       1.15                       # Average read queue length when enqueuing
system.mem_ctrls.avgWrQLen                      24.52                       # Average write queue length when enqueuing
system.mem_ctrls.readRowHits                     3328                       # Number of row buffer hits during reads
system.mem_ctrls.writeRowHits                     559                       # Number of row buffer hits during writes
system.mem_ctrls.readRowHitRate                 37.41                       # Row buffer hit rate for reads
system.mem_ctrls.writeRowHitRate                84.31                       # Row buffer hit rate for writes
system.mem_ctrls.avgGap                    1597306.39                       # Average gap between requests
system.mem_ctrls.pageHitRate                    40.67                       # Row buffer hit rate, read and write combined
system.mem_ctrls_0.actEnergy                 19385100                       # Energy for activate commands per rank (pJ)
system.mem_ctrls_0.preEnergy                 10303425                       # Energy for precharge commands per rank (pJ)
system.mem_ctrls_0.readEnergy                31244640                       # Energy for read commands per rank (pJ)
system.mem_ctrls_0.writeEnergy                1785240                       # Energy for write commands per rank (pJ)
system.mem_ctrls_0.refreshEnergy         997560720.000000                       # Energy for refresh commands per rank (pJ)
system.mem_ctrls_0.actBackEnergy            279885390                       # Energy for active background per rank (pJ)
system.mem_ctrls_0.preBackEnergy             35539680                       # Energy for precharge background per rank (pJ)
system.mem_ctrls_0.actPowerDownEnergy      3421998420                       # Energy for active power-down per rank (pJ)
system.mem_ctrls_0.prePowerDownEnergy      1309084320                       # Energy for precharge power-down per rank (pJ)
system.mem_ctrls_0.selfRefreshEnergy        953278740                       # Energy for self refresh per rank (pJ)
system.mem_ctrls_0.totalEnergy             7060124745                       # Total energy per rank (pJ)
system.mem_ctrls_0.averagePower            462.433065                       # Core power per rank (mW)
system.mem_ctrls_0.totalIdleTime          14554524500                       # Total Idle time Per DRAM Rank
system.mem_ctrls_0.memoryStateTime::IDLE     45246000                       # Time in different power states
system.mem_ctrls_0.memoryStateTime::REF     422826000                       # Time in different power states
system.mem_ctrls_0.memoryStateTime::SREF   3647420000                       # Time in different power states
system.mem_ctrls_0.memoryStateTime::PRE_PDN   3408846125                       # Time in different power states
system.mem_ctrls_0.memoryStateTime::ACT     238729250                       # Time in different power states
system.mem_ctrls_0.memoryStateTime::ACT_PDN   7504276750                       # Time in different power states
system.mem_ctrls_1.actEnergy                 21070140                       # Energy for activate commands per rank (pJ)
system.mem_ctrls_1.preEnergy                 11195250                       # Energy for precharge commands per rank (pJ)
system.mem_ctrls_1.readEnergy                32265660                       # Energy for read commands per rank (pJ)
system.mem_ctrls_1.writeEnergy                1649520                       # Energy for write commands per rank (pJ)
system.mem_ctrls_1.refreshEnergy         1081766400.000000                       # Energy for refresh commands per rank (pJ)
system.mem_ctrls_1.actBackEnergy            293120790                       # Energy for active background per rank (pJ)
system.mem_ctrls_1.preBackEnergy             40962720                       # Energy for precharge background per rank (pJ)
system.mem_ctrls_1.actPowerDownEnergy      3694526250                       # Energy for active power-down per rank (pJ)
system.mem_ctrls_1.prePowerDownEnergy      1369731840                       # Energy for precharge power-down per rank (pJ)
system.mem_ctrls_1.selfRefreshEnergy        782015820                       # Energy for self refresh per rank (pJ)
system.mem_ctrls_1.totalEnergy             7328379930                       # Total energy per rank (pJ)
system.mem_ctrls_1.averagePower            480.003586                       # Core power per rank (mW)
system.mem_ctrls_1.totalIdleTime          14516468500                       # Total Idle time Per DRAM Rank
system.mem_ctrls_1.memoryStateTime::IDLE     55386000                       # Time in different power states
system.mem_ctrls_1.memoryStateTime::REF     458674000                       # Time in different power states
system.mem_ctrls_1.memoryStateTime::SREF   2848653000                       # Time in different power states
system.mem_ctrls_1.memoryStateTime::PRE_PDN   3567173250                       # Time in different power states
system.mem_ctrls_1.memoryStateTime::ACT     235355500                       # Time in different power states
system.mem_ctrls_1.memoryStateTime::ACT_PDN   8102102375                       # Time in different power states
system.pwrStateResidencyTicks::UNDEFINED  15267344125                       # Cumulative time (in ticks) in various power states
system.cpu0.branchPred.lookups                8149944                       # Number of BP lookups
system.cpu0.branchPred.condPredicted          8149944                       # Number of conditional branches predicted
system.cpu0.branchPred.condIncorrect           486954                       # Number of conditional branches incorrect
system.cpu0.branchPred.BTBLookups             6605291                       # Number of BTB lookups
system.cpu0.branchPred.BTBHits                      0                       # Number of BTB hits
system.cpu0.branchPred.BTBCorrect                   0                       # Number of correct BTB predictions (this stat may not work properly.
system.cpu0.branchPred.BTBHitPct             0.000000                       # BTB Hit Percentage
system.cpu0.branchPred.usedRAS                 448619                       # Number of times the RAS was used to get a target.
system.cpu0.branchPred.RASInCorrect             62029                       # Number of incorrect RAS predictions.
system.cpu0.branchPred.indirectLookups        6605291                       # Number of indirect predictor lookups.
system.cpu0.branchPred.indirectHits           3143386                       # Number of indirect target hits.
system.cpu0.branchPred.indirectMisses         3461905                       # Number of indirect misses.
system.cpu0.branchPredindirectMispredicted       231240                       # Number of mispredicted indirect branches.
system.cpu_voltage_domain.voltage                   1                       # Voltage in Volts
system.cpu_clk_domain.clock                       500                       # Clock period in ticks
system.cpu0.dtb.walker.pwrStateResidencyTicks::UNDEFINED  15267344125                       # Cumulative time (in ticks) in various power states
system.cpu0.dtb.rdAccesses                    4302463                       # TLB accesses on read requests
system.cpu0.dtb.wrAccesses                     713607                       # TLB accesses on write requests
system.cpu0.dtb.rdMisses                       701080                       # TLB misses on read requests
system.cpu0.dtb.wrMisses                        12563                       # TLB misses on write requests
system.cpu0.apic_clk_domain.clock                8000                       # Clock period in ticks
system.cpu0.interrupts.pwrStateResidencyTicks::UNDEFINED  15267344125                       # Cumulative time (in ticks) in various power states
system.cpu0.itb.walker.pwrStateResidencyTicks::UNDEFINED  15267344125                       # Cumulative time (in ticks) in various power states
system.cpu0.itb.rdAccesses                          0                       # TLB accesses on read requests
system.cpu0.itb.wrAccesses                    6167882                       # TLB accesses on write requests
system.cpu0.itb.rdMisses                            0                       # TLB misses on read requests
system.cpu0.itb.wrMisses                        24161                       # TLB misses on write requests
system.cpu0.workload.numSyscalls                    2                       # Number of system calls
system.cpu0.pwrStateResidencyTicks::ON    15267344125                       # Cumulative time (in ticks) in various power states
system.cpu0.numCycles                        30534688                       # number of cpu cycles simulated
system.cpu0.numWorkItemsStarted                     0                       # number of work items this cpu started
system.cpu0.numWorkItemsCompleted                   0                       # number of work items this cpu completed
system.cpu0.fetch.icacheStallCycles           6412086                       # Number of cycles fetch is stalled on an Icache miss
system.cpu0.fetch.Insts                      26717992                       # Number of instructions fetch has processed
system.cpu0.fetch.Branches                    8149944                       # Number of branches that fetch encountered
system.cpu0.fetch.predictedBranches           3592005                       # Number of branches that fetch has predicted taken
system.cpu0.fetch.Cycles                     23449101                       # Number of cycles fetch has run and was not squashing or blocked
system.cpu0.fetch.SquashCycles                 989644                       # Number of cycles fetch has spent squashing
system.cpu0.fetch.TlbCycles                       669                       # Number of cycles fetch has spent waiting for tlb
system.cpu0.fetch.MiscStallCycles                5711                       # Number of cycles fetch has spent waiting on interrupts, or bad addresses, or out of MSHRs
system.cpu0.fetch.PendingTrapStallCycles       170822                       # Number of stall cycles due to pending traps
system.cpu0.fetch.PendingQuiesceStallCycles            1                       # Number of stall cycles due to pending quiesce instructions
system.cpu0.fetch.CacheLines                  6143722                       # Number of cache lines fetched
system.cpu0.fetch.IcacheSquashes               108876                       # Number of outstanding Icache misses that were squashed
system.cpu0.fetch.ItlbSquashes                     13                       # Number of outstanding ITLB misses that were squashed
system.cpu0.fetch.rateDist::samples          30533212                       # Number of instructions fetched each cycle (Total)
system.cpu0.fetch.rateDist::mean             1.769511                       # Number of instructions fetched each cycle (Total)
system.cpu0.fetch.rateDist::stdev            3.001456                       # Number of instructions fetched each cycle (Total)
system.cpu0.fetch.rateDist::underflows              0      0.00%      0.00% # Number of instructions fetched each cycle (Total)
system.cpu0.fetch.rateDist::0                20852953     68.30%     68.30% # Number of instructions fetched each cycle (Total)
system.cpu0.fetch.rateDist::1                  222049      0.73%     69.02% # Number of instructions fetched each cycle (Total)
system.cpu0.fetch.rateDist::2                 2496644      8.18%     77.20% # Number of instructions fetched each cycle (Total)
system.cpu0.fetch.rateDist::3                  304681      1.00%     78.20% # Number of instructions fetched each cycle (Total)
system.cpu0.fetch.rateDist::4                  677956      2.22%     80.42% # Number of instructions fetched each cycle (Total)
system.cpu0.fetch.rateDist::5                  484434      1.59%     82.00% # Number of instructions fetched each cycle (Total)
system.cpu0.fetch.rateDist::6                  485566      1.59%     83.60% # Number of instructions fetched each cycle (Total)
system.cpu0.fetch.rateDist::7                  219355      0.72%     84.31% # Number of instructions fetched each cycle (Total)
system.cpu0.fetch.rateDist::8                 4789574     15.69%    100.00% # Number of instructions fetched each cycle (Total)
system.cpu0.fetch.rateDist::overflows               0      0.00%    100.00% # Number of instructions fetched each cycle (Total)
system.cpu0.fetch.rateDist::min_value               0                       # Number of instructions fetched each cycle (Total)
system.cpu0.fetch.rateDist::max_value               8                       # Number of instructions fetched each cycle (Total)
system.cpu0.fetch.rateDist::total            30533212                       # Number of instructions fetched each cycle (Total)
system.cpu0.fetch.branchRate                 0.266908                       # Number of branch fetches per cycle
system.cpu0.fetch.rate                       0.875005                       # Number of inst fetches per cycle
system.cpu0.decode.IdleCycles                 3897417                       # Number of cycles decode is idle
system.cpu0.decode.BlockedCycles             18964418                       # Number of cycles decode is blocked
system.cpu0.decode.RunCycles                  5873690                       # Number of cycles decode is running
system.cpu0.decode.UnblockCycles              1302865                       # Number of cycles decode is unblocking
system.cpu0.decode.SquashCycles                494822                       # Number of cycles decode is squashing
system.cpu0.decode.DecodedInsts              47314081                       # Number of instructions handled by decode
system.cpu0.rename.SquashCycles                494822                       # Number of cycles rename is squashing
system.cpu0.rename.IdleCycles                 4475811                       # Number of cycles rename is idle
system.cpu0.rename.BlockCycles               15470870                       # Number of cycles rename is blocking
system.cpu0.rename.serializeStallCycles         92888                       # count of cycles rename stalled for serializing inst
system.cpu0.rename.RunCycles                  6360359                       # Number of cycles rename is running
system.cpu0.rename.UnblockCycles              3638462                       # Number of cycles rename is unblocking
system.cpu0.rename.RenamedInsts              45063056                       # Number of instructions processed by rename
system.cpu0.rename.ROBFullEvents                97182                       # Number of times rename has blocked due to ROB full
system.cpu0.rename.IQFullEvents               3283854                       # Number of times rename has blocked due to IQ full
system.cpu0.rename.LQFullEvents                 67391                       # Number of times rename has blocked due to LQ full
system.cpu0.rename.SQFullEvents                 12537                       # Number of times rename has blocked due to SQ full
system.cpu0.rename.FullRegisterEvents               1                       # Number of times there has been no free registers
system.cpu0.rename.RenamedOperands           53407341                       # Number of destination operands rename has renamed
system.cpu0.rename.RenameLookups            121306591                       # Number of register rename lookups that rename has made
system.cpu0.rename.int_rename_lookups        62666289                       # Number of integer rename lookups
system.cpu0.rename.fp_rename_lookups           541776                       # Number of floating rename lookups
system.cpu0.rename.CommittedMaps             20387724                       # Number of HB maps that are committed
system.cpu0.rename.UndoneMaps                33019647                       # Number of HB maps that are undone due to squashing
system.cpu0.rename.serializingInsts              2309                       # count of serializing insts renamed
system.cpu0.rename.tempSerializingInsts          2960                       # count of temporary serializing insts renamed
system.cpu0.rename.skidInsts                  6969747                       # count of insts added to the skid buffer
system.cpu0.memDep0.insertedLoads             6922028                       # Number of loads inserted to the mem dependence unit.
system.cpu0.memDep0.insertedStores            1024829                       # Number of stores inserted to the mem dependence unit.
system.cpu0.memDep0.conflictingLoads            62944                       # Number of conflicting loads.
system.cpu0.memDep0.conflictingStores           55190                       # Number of conflicting stores.
system.cpu0.iq.iqInstsAdded                  41344713                       # Number of instructions added to the IQ (excludes non-spec)
system.cpu0.iq.iqNonSpecInstsAdded              58335                       # Number of non-speculative instructions added to the IQ
system.cpu0.iq.iqInstsIssued                 31266303                       # Number of instructions issued
system.cpu0.iq.iqSquashedInstsIssued            81883                       # Number of squashed instructions issued
system.cpu0.iq.iqSquashedInstsExamined       24541678                       # Number of squashed instructions iterated over during squash; mainly for profiling
system.cpu0.iq.iqSquashedOperandsExamined     45842406                       # Number of squashed operands that are examined and possibly removed from graph
system.cpu0.iq.iqSquashedNonSpecRemoved         58333                       # Number of squashed non-spec instructions that were removed
system.cpu0.iq.issued_per_cycle::samples     30533212                       # Number of insts issued each cycle
system.cpu0.iq.issued_per_cycle::mean        1.024010                       # Number of insts issued each cycle
system.cpu0.iq.issued_per_cycle::stdev       1.796008                       # Number of insts issued each cycle
system.cpu0.iq.issued_per_cycle::underflows            0      0.00%      0.00% # Number of insts issued each cycle
system.cpu0.iq.issued_per_cycle::0           20039286     65.63%     65.63% # Number of insts issued each cycle
system.cpu0.iq.issued_per_cycle::1            3112217     10.19%     75.82% # Number of insts issued each cycle
system.cpu0.iq.issued_per_cycle::2            2040376      6.68%     82.51% # Number of insts issued each cycle
system.cpu0.iq.issued_per_cycle::3            1550267      5.08%     87.58% # Number of insts issued each cycle
system.cpu0.iq.issued_per_cycle::4            1630793      5.34%     92.92% # Number of insts issued each cycle
system.cpu0.iq.issued_per_cycle::5             880589      2.88%     95.81% # Number of insts issued each cycle
system.cpu0.iq.issued_per_cycle::6             694394      2.27%     98.08% # Number of insts issued each cycle
system.cpu0.iq.issued_per_cycle::7             352268      1.15%     99.24% # Number of insts issued each cycle
system.cpu0.iq.issued_per_cycle::8             233022      0.76%    100.00% # Number of insts issued each cycle
system.cpu0.iq.issued_per_cycle::overflows            0      0.00%    100.00% # Number of insts issued each cycle
system.cpu0.iq.issued_per_cycle::min_value            0                       # Number of insts issued each cycle
system.cpu0.iq.issued_per_cycle::max_value            8                       # Number of insts issued each cycle
system.cpu0.iq.issued_per_cycle::total       30533212                       # Number of insts issued each cycle
system.cpu0.iq.fu_full::No_OpClass                  0      0.00%      0.00% # attempts to use FU when none available
system.cpu0.iq.fu_full::IntAlu                 166669     78.21%     78.21% # attempts to use FU when none available
system.cpu0.iq.fu_full::IntMult                     0      0.00%     78.21% # attempts to use FU when none available
system.cpu0.iq.fu_full::IntDiv                      0      0.00%     78.21% # attempts to use FU when none available
system.cpu0.iq.fu_full::FloatAdd                16719      7.85%     86.06% # attempts to use FU when none available
system.cpu0.iq.fu_full::FloatCmp                    0      0.00%     86.06% # attempts to use FU when none available
system.cpu0.iq.fu_full::FloatCvt                    0      0.00%     86.06% # attempts to use FU when none available
system.cpu0.iq.fu_full::FloatMult                   0      0.00%     86.06% # attempts to use FU when none available
system.cpu0.iq.fu_full::FloatMultAcc                0      0.00%     86.06% # attempts to use FU when none available
system.cpu0.iq.fu_full::FloatDiv                    0      0.00%     86.06% # attempts to use FU when none available
system.cpu0.iq.fu_full::FloatMisc                   0      0.00%     86.06% # attempts to use FU when none available
system.cpu0.iq.fu_full::FloatSqrt                   0      0.00%     86.06% # attempts to use FU when none available
system.cpu0.iq.fu_full::SimdAdd                     0      0.00%     86.06% # attempts to use FU when none available
system.cpu0.iq.fu_full::SimdAddAcc                  0      0.00%     86.06% # attempts to use FU when none available
system.cpu0.iq.fu_full::SimdAlu                     0      0.00%     86.06% # attempts to use FU when none available
system.cpu0.iq.fu_full::SimdCmp                     0      0.00%     86.06% # attempts to use FU when none available
system.cpu0.iq.fu_full::SimdCvt                     0      0.00%     86.06% # attempts to use FU when none available
system.cpu0.iq.fu_full::SimdMisc                    0      0.00%     86.06% # attempts to use FU when none available
system.cpu0.iq.fu_full::SimdMult                    0      0.00%     86.06% # attempts to use FU when none available
system.cpu0.iq.fu_full::SimdMultAcc                 0      0.00%     86.06% # attempts to use FU when none available
system.cpu0.iq.fu_full::SimdShift                   0      0.00%     86.06% # attempts to use FU when none available
system.cpu0.iq.fu_full::SimdShiftAcc                0      0.00%     86.06% # attempts to use FU when none available
system.cpu0.iq.fu_full::SimdSqrt                    0      0.00%     86.06% # attempts to use FU when none available
system.cpu0.iq.fu_full::SimdFloatAdd                0      0.00%     86.06% # attempts to use FU when none available
system.cpu0.iq.fu_full::SimdFloatAlu                0      0.00%     86.06% # attempts to use FU when none available
system.cpu0.iq.fu_full::SimdFloatCmp                0      0.00%     86.06% # attempts to use FU when none available
system.cpu0.iq.fu_full::SimdFloatCvt                0      0.00%     86.06% # attempts to use FU when none available
system.cpu0.iq.fu_full::SimdFloatDiv                0      0.00%     86.06% # attempts to use FU when none available
system.cpu0.iq.fu_full::SimdFloatMisc               0      0.00%     86.06% # attempts to use FU when none available
system.cpu0.iq.fu_full::SimdFloatMult               0      0.00%     86.06% # attempts to use FU when none available
system.cpu0.iq.fu_full::SimdFloatMultAcc            0      0.00%     86.06% # attempts to use FU when none available
system.cpu0.iq.fu_full::SimdFloatSqrt               0      0.00%     86.06% # attempts to use FU when none available
system.cpu0.iq.fu_full::MemRead                 23880     11.21%     97.27% # attempts to use FU when none available
system.cpu0.iq.fu_full::MemWrite                 3595      1.69%     98.95% # attempts to use FU when none available
system.cpu0.iq.fu_full::FloatMemRead             2163      1.02%     99.97% # attempts to use FU when none available
system.cpu0.iq.fu_full::FloatMemWrite              68      0.03%    100.00% # attempts to use FU when none available
system.cpu0.iq.fu_full::IprAccess                   0      0.00%    100.00% # attempts to use FU when none available
system.cpu0.iq.fu_full::InstPrefetch                0      0.00%    100.00% # attempts to use FU when none available
system.cpu0.iq.FU_type_0::No_OpClass           179854      0.58%      0.58% # Type of FU issued
system.cpu0.iq.FU_type_0::IntAlu             25314024     80.96%     81.54% # Type of FU issued
system.cpu0.iq.FU_type_0::IntMult               14295      0.05%     81.58% # Type of FU issued
system.cpu0.iq.FU_type_0::IntDiv               161742      0.52%     82.10% # Type of FU issued
system.cpu0.iq.FU_type_0::FloatAdd             208648      0.67%     82.77% # Type of FU issued
system.cpu0.iq.FU_type_0::FloatCmp                  0      0.00%     82.77% # Type of FU issued
system.cpu0.iq.FU_type_0::FloatCvt                  0      0.00%     82.77% # Type of FU issued
system.cpu0.iq.FU_type_0::FloatMult                 0      0.00%     82.77% # Type of FU issued
system.cpu0.iq.FU_type_0::FloatMultAcc              0      0.00%     82.77% # Type of FU issued
system.cpu0.iq.FU_type_0::FloatDiv                  0      0.00%     82.77% # Type of FU issued
system.cpu0.iq.FU_type_0::FloatMisc                 0      0.00%     82.77% # Type of FU issued
system.cpu0.iq.FU_type_0::FloatSqrt                 0      0.00%     82.77% # Type of FU issued
system.cpu0.iq.FU_type_0::SimdAdd                   0      0.00%     82.77% # Type of FU issued
system.cpu0.iq.FU_type_0::SimdAddAcc                0      0.00%     82.77% # Type of FU issued
system.cpu0.iq.FU_type_0::SimdAlu                   0      0.00%     82.77% # Type of FU issued
system.cpu0.iq.FU_type_0::SimdCmp                   0      0.00%     82.77% # Type of FU issued
system.cpu0.iq.FU_type_0::SimdCvt                   0      0.00%     82.77% # Type of FU issued
system.cpu0.iq.FU_type_0::SimdMisc                  0      0.00%     82.77% # Type of FU issued
system.cpu0.iq.FU_type_0::SimdMult                  0      0.00%     82.77% # Type of FU issued
system.cpu0.iq.FU_type_0::SimdMultAcc               0      0.00%     82.77% # Type of FU issued
system.cpu0.iq.FU_type_0::SimdShift                 0      0.00%     82.77% # Type of FU issued
system.cpu0.iq.FU_type_0::SimdShiftAcc              0      0.00%     82.77% # Type of FU issued
system.cpu0.iq.FU_type_0::SimdSqrt                  0      0.00%     82.77% # Type of FU issued
system.cpu0.iq.FU_type_0::SimdFloatAdd              0      0.00%     82.77% # Type of FU issued
system.cpu0.iq.FU_type_0::SimdFloatAlu              0      0.00%     82.77% # Type of FU issued
system.cpu0.iq.FU_type_0::SimdFloatCmp              0      0.00%     82.77% # Type of FU issued
system.cpu0.iq.FU_type_0::SimdFloatCvt              0      0.00%     82.77% # Type of FU issued
system.cpu0.iq.FU_type_0::SimdFloatDiv              0      0.00%     82.77% # Type of FU issued
system.cpu0.iq.FU_type_0::SimdFloatMisc             0      0.00%     82.77% # Type of FU issued
system.cpu0.iq.FU_type_0::SimdFloatMult             0      0.00%     82.77% # Type of FU issued
system.cpu0.iq.FU_type_0::SimdFloatMultAcc            0      0.00%     82.77% # Type of FU issued
system.cpu0.iq.FU_type_0::SimdFloatSqrt             0      0.00%     82.77% # Type of FU issued
system.cpu0.iq.FU_type_0::MemRead             4576747     14.64%     97.41% # Type of FU issued
system.cpu0.iq.FU_type_0::MemWrite             766697      2.45%     99.86% # Type of FU issued
system.cpu0.iq.FU_type_0::FloatMemRead          44121      0.14%    100.00% # Type of FU issued
system.cpu0.iq.FU_type_0::FloatMemWrite           175      0.00%    100.00% # Type of FU issued
system.cpu0.iq.FU_type_0::IprAccess                 0      0.00%    100.00% # Type of FU issued
system.cpu0.iq.FU_type_0::InstPrefetch              0      0.00%    100.00% # Type of FU issued
system.cpu0.iq.FU_type_0::total              31266303                       # Type of FU issued
system.cpu0.iq.rate                          1.023960                       # Inst issue rate
system.cpu0.iq.fu_busy_cnt                     213094                       # FU busy when requested
system.cpu0.iq.fu_busy_rate                  0.006815                       # FU busy rate (busy events/executed inst)
system.cpu0.iq.int_inst_queue_reads          92833324                       # Number of integer instruction queue reads
system.cpu0.iq.int_inst_queue_writes         65507084                       # Number of integer instruction queue writes
system.cpu0.iq.int_inst_queue_wakeup_accesses     29395595                       # Number of integer instruction queue wakeup accesses
system.cpu0.iq.fp_inst_queue_reads             527471                       # Number of floating instruction queue reads
system.cpu0.iq.fp_inst_queue_writes            437692                       # Number of floating instruction queue writes
system.cpu0.iq.fp_inst_queue_wakeup_accesses       232224                       # Number of floating instruction queue wakeup accesses
system.cpu0.iq.vec_inst_queue_reads                 0                       # Number of vector instruction queue reads
system.cpu0.iq.vec_inst_queue_writes                0                       # Number of vector instruction queue writes
system.cpu0.iq.vec_inst_queue_wakeup_accesses            0                       # Number of vector instruction queue wakeup accesses
system.cpu0.iq.int_alu_accesses              31027641                       # Number of integer alu accesses
system.cpu0.iq.fp_alu_accesses                 271902                       # Number of floating point alu accesses
system.cpu0.iq.vec_alu_accesses                     0                       # Number of vector alu accesses
system.cpu0.iew.lsq.thread0.forwLoads           72078                       # Number of loads that had data forwarded from stores
system.cpu0.iew.lsq.thread0.invAddrLoads            0                       # Number of loads ignored due to an invalid address
system.cpu0.iew.lsq.thread0.squashedLoads      4305036                       # Number of loads squashed
system.cpu0.iew.lsq.thread0.ignoredResponses         2032                       # Number of memory responses ignored because the instruction is squashed
system.cpu0.iew.lsq.thread0.memOrderViolation           81                       # Number of memory ordering violations
system.cpu0.iew.lsq.thread0.squashedStores       542540                       # Number of stores squashed
system.cpu0.iew.lsq.thread0.invAddrSwpfs            0                       # Number of software prefetches ignored due to an invalid address
system.cpu0.iew.lsq.thread0.blockedLoads            0                       # Number of blocked loads due to partial load-store forwarding
system.cpu0.iew.lsq.thread0.rescheduledLoads          560                       # Number of loads that were rescheduled
system.cpu0.iew.lsq.thread0.cacheBlocked         2714                       # Number of times an access to memory failed due to the cache being blocked
system.cpu0.iew.iewIdleCycles                       0                       # Number of cycles IEW is idle
system.cpu0.iew.iewSquashCycles                494822                       # Number of cycles IEW is squashing
system.cpu0.iew.iewBlockCycles               12728793                       # Number of cycles IEW is blocking
system.cpu0.iew.iewUnblockCycles               564007                       # Number of cycles IEW is unblocking
system.cpu0.iew.iewDispatchedInsts           41403048                       # Number of instructions dispatched to IQ
system.cpu0.iew.iewDispSquashedInsts            28255                       # Number of squashed instructions skipped by dispatch
system.cpu0.iew.iewDispLoadInsts              6922028                       # Number of dispatched load instructions
system.cpu0.iew.iewDispStoreInsts             1024829                       # Number of dispatched store instructions
system.cpu0.iew.iewDispNonSpecInsts             20939                       # Number of dispatched non-speculative instructions
system.cpu0.iew.iewIQFullEvents                 42246                       # Number of times the IQ has become full, causing a stall
system.cpu0.iew.iewLSQFullEvents                13089                       # Number of times the LSQ has become full, causing a stall
system.cpu0.iew.memOrderViolationEvents            81                       # Number of memory order violations
system.cpu0.iew.predictedTakenIncorrect        222307                       # Number of branches that were predicted taken incorrectly
system.cpu0.iew.predictedNotTakenIncorrect       363700                       # Number of branches that were predicted not taken incorrectly
system.cpu0.iew.branchMispredicts              586007                       # Number of branch mispredicts detected at execute
system.cpu0.iew.iewExecutedInsts             30320986                       # Number of executed instructions
system.cpu0.iew.iewExecLoadInsts              4298379                       # Number of load instructions executed
system.cpu0.iew.iewExecSquashedInsts           945317                       # Number of squashed instructions skipped in execute
system.cpu0.iew.exec_swp                            0                       # number of swp insts executed
system.cpu0.iew.exec_nop                            0                       # number of nop insts executed
system.cpu0.iew.exec_refs                     5011796                       # number of memory reference insts executed
system.cpu0.iew.exec_branches                 3447019                       # Number of branches executed
system.cpu0.iew.exec_stores                    713417                       # Number of stores executed
system.cpu0.iew.exec_rate                    0.993001                       # Inst execution rate
system.cpu0.iew.wb_sent                      29820867                       # cumulative count of insts sent to commit
system.cpu0.iew.wb_count                     29627819                       # cumulative count of insts written-back
system.cpu0.iew.wb_producers                 22124822                       # num instructions producing a value
system.cpu0.iew.wb_consumers                 36571857                       # num instructions consuming a value
system.cpu0.iew.wb_rate                      0.970300                       # insts written-back per cycle
system.cpu0.iew.wb_fanout                    0.604969                       # average fanout of values written-back
system.cpu0.commit.commitSquashedInsts       24543049                       # The number of squashed insts skipped by commit
system.cpu0.commit.commitNonSpecStalls              2                       # The number of times commit has been forced to stall to communicate backwards
system.cpu0.commit.branchMispredicts           494786                       # The number of times a branch was mispredicted
system.cpu0.commit.committed_per_cycle::samples     26943946                       # Number of insts commited each cycle
system.cpu0.commit.committed_per_cycle::mean     0.625796                       # Number of insts commited each cycle
system.cpu0.commit.committed_per_cycle::stdev     1.510264                       # Number of insts commited each cycle
system.cpu0.commit.committed_per_cycle::underflows            0      0.00%      0.00% # Number of insts commited each cycle
system.cpu0.commit.committed_per_cycle::0     20690190     76.79%     76.79% # Number of insts commited each cycle
system.cpu0.commit.committed_per_cycle::1      2538153      9.42%     86.21% # Number of insts commited each cycle
system.cpu0.commit.committed_per_cycle::2       783543      2.91%     89.12% # Number of insts commited each cycle
system.cpu0.commit.committed_per_cycle::3      1658213      6.15%     95.27% # Number of insts commited each cycle
system.cpu0.commit.committed_per_cycle::4       373441      1.39%     96.66% # Number of insts commited each cycle
system.cpu0.commit.committed_per_cycle::5       228145      0.85%     97.50% # Number of insts commited each cycle
system.cpu0.commit.committed_per_cycle::6        87107      0.32%     97.83% # Number of insts commited each cycle
system.cpu0.commit.committed_per_cycle::7        56828      0.21%     98.04% # Number of insts commited each cycle
system.cpu0.commit.committed_per_cycle::8       528326      1.96%    100.00% # Number of insts commited each cycle
system.cpu0.commit.committed_per_cycle::overflows            0      0.00%    100.00% # Number of insts commited each cycle
system.cpu0.commit.committed_per_cycle::min_value            0                       # Number of insts commited each cycle
system.cpu0.commit.committed_per_cycle::max_value            8                       # Number of insts commited each cycle
system.cpu0.commit.committed_per_cycle::total     26943946                       # Number of insts commited each cycle
system.cpu0.commit.committedInsts             8461539                       # Number of instructions committed
system.cpu0.commit.committedOps              16861413                       # Number of ops (including micro ops) committed
system.cpu0.commit.swp_count                        0                       # Number of s/w prefetches committed
system.cpu0.commit.refs                       3099288                       # Number of memory references committed
system.cpu0.commit.loads                      2616998                       # Number of loads committed
system.cpu0.commit.membars                          0                       # Number of memory barriers committed
system.cpu0.commit.branches                   2547769                       # Number of branches committed
system.cpu0.commit.vec_insts                        0                       # Number of committed Vector instructions.
system.cpu0.commit.fp_insts                    194752                       # Number of committed floating point instructions.
system.cpu0.commit.int_insts                 16665241                       # Number of committed integer instructions.
system.cpu0.commit.function_calls               85183                       # Number of function calls committed.
system.cpu0.commit.op_class_0::No_OpClass        58570      0.35%      0.35% # Class of committed instruction
system.cpu0.commit.op_class_0::IntAlu        13391681     79.42%     79.77% # Class of committed instruction
system.cpu0.commit.op_class_0::IntMult           3407      0.02%     79.79% # Class of committed instruction
system.cpu0.commit.op_class_0::IntDiv          142291      0.84%     80.63% # Class of committed instruction
system.cpu0.commit.op_class_0::FloatAdd        166176      0.99%     81.62% # Class of committed instruction
system.cpu0.commit.op_class_0::FloatCmp             0      0.00%     81.62% # Class of committed instruction
system.cpu0.commit.op_class_0::FloatCvt             0      0.00%     81.62% # Class of committed instruction
system.cpu0.commit.op_class_0::FloatMult            0      0.00%     81.62% # Class of committed instruction
system.cpu0.commit.op_class_0::FloatMultAcc            0      0.00%     81.62% # Class of committed instruction
system.cpu0.commit.op_class_0::FloatDiv             0      0.00%     81.62% # Class of committed instruction
system.cpu0.commit.op_class_0::FloatMisc            0      0.00%     81.62% # Class of committed instruction
system.cpu0.commit.op_class_0::FloatSqrt            0      0.00%     81.62% # Class of committed instruction
system.cpu0.commit.op_class_0::SimdAdd              0      0.00%     81.62% # Class of committed instruction
system.cpu0.commit.op_class_0::SimdAddAcc            0      0.00%     81.62% # Class of committed instruction
system.cpu0.commit.op_class_0::SimdAlu              0      0.00%     81.62% # Class of committed instruction
system.cpu0.commit.op_class_0::SimdCmp              0      0.00%     81.62% # Class of committed instruction
system.cpu0.commit.op_class_0::SimdCvt              0      0.00%     81.62% # Class of committed instruction
system.cpu0.commit.op_class_0::SimdMisc             0      0.00%     81.62% # Class of committed instruction
system.cpu0.commit.op_class_0::SimdMult             0      0.00%     81.62% # Class of committed instruction
system.cpu0.commit.op_class_0::SimdMultAcc            0      0.00%     81.62% # Class of committed instruction
system.cpu0.commit.op_class_0::SimdShift            0      0.00%     81.62% # Class of committed instruction
system.cpu0.commit.op_class_0::SimdShiftAcc            0      0.00%     81.62% # Class of committed instruction
system.cpu0.commit.op_class_0::SimdSqrt             0      0.00%     81.62% # Class of committed instruction
system.cpu0.commit.op_class_0::SimdFloatAdd            0      0.00%     81.62% # Class of committed instruction
system.cpu0.commit.op_class_0::SimdFloatAlu            0      0.00%     81.62% # Class of committed instruction
system.cpu0.commit.op_class_0::SimdFloatCmp            0      0.00%     81.62% # Class of committed instruction
system.cpu0.commit.op_class_0::SimdFloatCvt            0      0.00%     81.62% # Class of committed instruction
system.cpu0.commit.op_class_0::SimdFloatDiv            0      0.00%     81.62% # Class of committed instruction
system.cpu0.commit.op_class_0::SimdFloatMisc            0      0.00%     81.62% # Class of committed instruction
system.cpu0.commit.op_class_0::SimdFloatMult            0      0.00%     81.62% # Class of committed instruction
system.cpu0.commit.op_class_0::SimdFloatMultAcc            0      0.00%     81.62% # Class of committed instruction
system.cpu0.commit.op_class_0::SimdFloatSqrt            0      0.00%     81.62% # Class of committed instruction
system.cpu0.commit.op_class_0::MemRead        2588422     15.35%     96.97% # Class of committed instruction
system.cpu0.commit.op_class_0::MemWrite        482290      2.86%     99.83% # Class of committed instruction
system.cpu0.commit.op_class_0::FloatMemRead        28576      0.17%    100.00% # Class of committed instruction
system.cpu0.commit.op_class_0::FloatMemWrite            0      0.00%    100.00% # Class of committed instruction
system.cpu0.commit.op_class_0::IprAccess            0      0.00%    100.00% # Class of committed instruction
system.cpu0.commit.op_class_0::InstPrefetch            0      0.00%    100.00% # Class of committed instruction
system.cpu0.commit.op_class_0::total         16861413                       # Class of committed instruction
system.cpu0.commit.bw_lim_events               528326                       # number cycles where commit BW limit reached
system.cpu0.rob.rob_reads                    67820082                       # The number of ROB reads
system.cpu0.rob.rob_writes                   86422807                       # The number of ROB writes
system.cpu0.timesIdled                            438                       # Number of times that the entire CPU went into an idle state and unscheduled itself
system.cpu0.idleCycles                           1476                       # Total number of cycles that the CPU has spent unscheduled due to idling
system.cpu0.committedInsts                    8461539                       # Number of Instructions Simulated
system.cpu0.committedOps                     16861413                       # Number of Ops (including micro ops) Simulated
system.cpu0.cpi                              3.608645                       # CPI: Cycles Per Instruction
system.cpu0.cpi_total                        3.608645                       # CPI: Total CPI of All Threads
system.cpu0.ipc                              0.277112                       # IPC: Instructions Per Cycle
system.cpu0.ipc_total                        0.277112                       # IPC: Total IPC of All Threads
system.cpu0.int_regfile_reads                34889610                       # number of integer regfile reads
system.cpu0.int_regfile_writes               25617767                       # number of integer regfile writes
system.cpu0.fp_regfile_reads                   406948                       # number of floating regfile reads
system.cpu0.fp_regfile_writes                  203496                       # number of floating regfile writes
system.cpu0.cc_regfile_reads                 17967222                       # number of cc regfile reads
system.cpu0.cc_regfile_writes                 8730582                       # number of cc regfile writes
system.cpu0.misc_regfile_reads               14440075                       # number of misc regfile reads
system.cpu0.dcache.tags.pwrStateResidencyTicks::UNDEFINED  15267344125                       # Cumulative time (in ticks) in various power states
system.cpu0.dcache.tags.replacements          1062962                       # number of replacements
system.cpu0.dcache.tags.tagsinuse                 512                       # Cycle average of tags in use
system.cpu0.dcache.tags.total_refs            2841502                       # Total number of references to valid blocks.
system.cpu0.dcache.tags.sampled_refs          1062962                       # Sample count of references to valid blocks.
system.cpu0.dcache.tags.avg_refs             2.673192                       # Average number of references to valid blocks.
system.cpu0.dcache.tags.warmup_cycle                0                       # Cycle when the warmup percentage was hit.
system.cpu0.dcache.tags.occ_blocks::cpu0.data          512                       # Average occupied blocks per requestor
system.cpu0.dcache.tags.occ_percent::cpu0.data            1                       # Average percentage of cache occupancy
system.cpu0.dcache.tags.occ_percent::total            1                       # Average percentage of cache occupancy
system.cpu0.dcache.tags.occ_task_id_blocks::1024          512                       # Occupied blocks per task id
system.cpu0.dcache.tags.age_task_id_blocks_1024::0          439                       # Occupied blocks per task id
system.cpu0.dcache.tags.age_task_id_blocks_1024::1           73                       # Occupied blocks per task id
system.cpu0.dcache.tags.occ_task_id_percent::1024            1                       # Percentage of cache occupancy per task id
system.cpu0.dcache.tags.tag_accesses         19734834                       # Number of tag accesses
system.cpu0.dcache.tags.data_accesses        19734834                       # Number of data accesses
system.cpu0.dcache.pwrStateResidencyTicks::UNDEFINED  15267344125                       # Cumulative time (in ticks) in various power states
system.cpu0.dcache.ReadReq_hits::cpu0.data      2365020                       # number of ReadReq hits
system.cpu0.dcache.ReadReq_hits::total        2365020                       # number of ReadReq hits
system.cpu0.dcache.WriteReq_hits::cpu0.data       473638                       # number of WriteReq hits
system.cpu0.dcache.WriteReq_hits::total        473638                       # number of WriteReq hits
system.cpu0.dcache.demand_hits::cpu0.data      2838658                       # number of demand (read+write) hits
system.cpu0.dcache.demand_hits::total         2838658                       # number of demand (read+write) hits
system.cpu0.dcache.overall_hits::cpu0.data      2838658                       # number of overall hits
system.cpu0.dcache.overall_hits::total        2838658                       # number of overall hits
system.cpu0.dcache.ReadReq_misses::cpu0.data      1820658                       # number of ReadReq misses
system.cpu0.dcache.ReadReq_misses::total      1820658                       # number of ReadReq misses
system.cpu0.dcache.WriteReq_misses::cpu0.data         8652                       # number of WriteReq misses
system.cpu0.dcache.WriteReq_misses::total         8652                       # number of WriteReq misses
system.cpu0.dcache.demand_misses::cpu0.data      1829310                       # number of demand (read+write) misses
system.cpu0.dcache.demand_misses::total       1829310                       # number of demand (read+write) misses
system.cpu0.dcache.overall_misses::cpu0.data      1829310                       # number of overall misses
system.cpu0.dcache.overall_misses::total      1829310                       # number of overall misses
system.cpu0.dcache.ReadReq_miss_latency::cpu0.data  25270856500                       # number of ReadReq miss cycles
system.cpu0.dcache.ReadReq_miss_latency::total  25270856500                       # number of ReadReq miss cycles
system.cpu0.dcache.WriteReq_miss_latency::cpu0.data    538685499                       # number of WriteReq miss cycles
system.cpu0.dcache.WriteReq_miss_latency::total    538685499                       # number of WriteReq miss cycles
system.cpu0.dcache.demand_miss_latency::cpu0.data  25809541999                       # number of demand (read+write) miss cycles
system.cpu0.dcache.demand_miss_latency::total  25809541999                       # number of demand (read+write) miss cycles
system.cpu0.dcache.overall_miss_latency::cpu0.data  25809541999                       # number of overall miss cycles
system.cpu0.dcache.overall_miss_latency::total  25809541999                       # number of overall miss cycles
system.cpu0.dcache.ReadReq_accesses::cpu0.data      4185678                       # number of ReadReq accesses(hits+misses)
system.cpu0.dcache.ReadReq_accesses::total      4185678                       # number of ReadReq accesses(hits+misses)
system.cpu0.dcache.WriteReq_accesses::cpu0.data       482290                       # number of WriteReq accesses(hits+misses)
system.cpu0.dcache.WriteReq_accesses::total       482290                       # number of WriteReq accesses(hits+misses)
system.cpu0.dcache.demand_accesses::cpu0.data      4667968                       # number of demand (read+write) accesses
system.cpu0.dcache.demand_accesses::total      4667968                       # number of demand (read+write) accesses
system.cpu0.dcache.overall_accesses::cpu0.data      4667968                       # number of overall (read+write) accesses
system.cpu0.dcache.overall_accesses::total      4667968                       # number of overall (read+write) accesses
system.cpu0.dcache.ReadReq_miss_rate::cpu0.data     0.434973                       # miss rate for ReadReq accesses
system.cpu0.dcache.ReadReq_miss_rate::total     0.434973                       # miss rate for ReadReq accesses
system.cpu0.dcache.WriteReq_miss_rate::cpu0.data     0.017939                       # miss rate for WriteReq accesses
system.cpu0.dcache.WriteReq_miss_rate::total     0.017939                       # miss rate for WriteReq accesses
system.cpu0.dcache.demand_miss_rate::cpu0.data     0.391886                       # miss rate for demand accesses
system.cpu0.dcache.demand_miss_rate::total     0.391886                       # miss rate for demand accesses
system.cpu0.dcache.overall_miss_rate::cpu0.data     0.391886                       # miss rate for overall accesses
[...]
system.l2.demand_miss_rate::cpu0.data        0.008361                       # miss rate for demand accesses
system.l2.demand_miss_rate::total            0.008368                       # miss rate for demand accesses
system.l2.overall_miss_rate::cpu0.inst       0.108108                       # miss rate for overall accesses
system.l2.overall_miss_rate::cpu0.data       0.008361                       # miss rate for overall accesses
system.l2.overall_miss_rate::total           0.008368                       # miss rate for overall accesses
system.l2.ReadExReq_avg_miss_latency::cpu0.data 104486.944878                       # average ReadExReq miss latency
system.l2.ReadExReq_avg_miss_latency::total 104486.944878                       # average ReadExReq miss latency
system.l2.ReadCleanReq_avg_miss_latency::cpu0.inst 353437.500000                       # average ReadCleanReq miss latency
system.l2.ReadCleanReq_avg_miss_latency::total 353437.500000                       # average ReadCleanReq miss latency
system.l2.ReadSharedReq_avg_miss_latency::cpu0.data 114587.267363                       # average ReadSharedReq miss latency
system.l2.ReadSharedReq_avg_miss_latency::total 114587.267363                       # average ReadSharedReq miss latency
system.l2.demand_avg_miss_latency::cpu0.inst 353437.500000                       # average overall miss latency
system.l2.demand_avg_miss_latency::cpu0.data 109494.486328                       # average overall miss latency
system.l2.demand_avg_miss_latency::total 109713.884205                       # average overall miss latency
system.l2.overall_avg_miss_latency::cpu0.inst 353437.500000                       # average overall miss latency
system.l2.overall_avg_miss_latency::cpu0.data 109494.486328                       # average overall miss latency
system.l2.overall_avg_miss_latency::total 109713.884205                       # average overall miss latency
system.l2.blocked_cycles::no_mshrs                  0                       # number of cycles access was blocked
system.l2.blocked_cycles::no_targets                0                       # number of cycles access was blocked
system.l2.blocked::no_mshrs                         0                       # number of cycles access was blocked
system.l2.blocked::no_targets                       0                       # number of cycles access was blocked
system.l2.avg_blocked_cycles::no_mshrs            nan                       # average number of cycles each access was blocked
system.l2.avg_blocked_cycles::no_targets          nan                       # average number of cycles each access was blocked
system.l2.writebacks::writebacks                  663                       # number of writebacks
system.l2.writebacks::total                       663                       # number of writebacks
system.l2.ReadExReq_mshr_misses::cpu0.data         4481                       # number of ReadExReq MSHR misses
system.l2.ReadExReq_mshr_misses::total           4481                       # number of ReadExReq MSHR misses
system.l2.ReadCleanReq_mshr_misses::cpu0.inst            8                       # number of ReadCleanReq MSHR misses
system.l2.ReadCleanReq_mshr_misses::total            8                       # number of ReadCleanReq MSHR misses
system.l2.ReadSharedReq_mshr_misses::cpu0.data         4406                       # number of ReadSharedReq MSHR misses
system.l2.ReadSharedReq_mshr_misses::total         4406                       # number of ReadSharedReq MSHR misses
system.l2.demand_mshr_misses::cpu0.inst             8                       # number of demand (read+write) MSHR misses
system.l2.demand_mshr_misses::cpu0.data          8887                       # number of demand (read+write) MSHR misses
system.l2.demand_mshr_misses::total              8895                       # number of demand (read+write) MSHR misses
system.l2.overall_mshr_misses::cpu0.inst            8                       # number of overall MSHR misses
system.l2.overall_mshr_misses::cpu0.data         8887                       # number of overall MSHR misses
system.l2.overall_mshr_misses::total             8895                       # number of overall MSHR misses
system.l2.ReadExReq_mshr_miss_latency::cpu0.data    423396000                       # number of ReadExReq MSHR miss cycles
system.l2.ReadExReq_mshr_miss_latency::total    423396000                       # number of ReadExReq MSHR miss cycles
system.l2.ReadCleanReq_mshr_miss_latency::cpu0.inst      2747500                       # number of ReadCleanReq MSHR miss cycles
system.l2.ReadCleanReq_mshr_miss_latency::total      2747500                       # number of ReadCleanReq MSHR miss cycles
system.l2.ReadSharedReq_mshr_miss_latency::cpu0.data    460811500                       # number of ReadSharedReq MSHR miss cycles
system.l2.ReadSharedReq_mshr_miss_latency::total    460811500                       # number of ReadSharedReq MSHR miss cycles
system.l2.demand_mshr_miss_latency::cpu0.inst      2747500                       # number of demand (read+write) MSHR miss cycles
system.l2.demand_mshr_miss_latency::cpu0.data    884207500                       # number of demand (read+write) MSHR miss cycles
system.l2.demand_mshr_miss_latency::total    886955000                       # number of demand (read+write) MSHR miss cycles
system.l2.overall_mshr_miss_latency::cpu0.inst      2747500                       # number of overall MSHR miss cycles
system.l2.overall_mshr_miss_latency::cpu0.data    884207500                       # number of overall MSHR miss cycles
system.l2.overall_mshr_miss_latency::total    886955000                       # number of overall MSHR miss cycles
system.l2.ReadExReq_mshr_miss_rate::cpu0.data     0.521957                       # mshr miss rate for ReadExReq accesses
system.l2.ReadExReq_mshr_miss_rate::total     0.521957                       # mshr miss rate for ReadExReq accesses
system.l2.ReadCleanReq_mshr_miss_rate::cpu0.inst     0.108108                       # mshr miss rate for ReadCleanReq accesses
system.l2.ReadCleanReq_mshr_miss_rate::total     0.108108                       # mshr miss rate for ReadCleanReq accesses
system.l2.ReadSharedReq_mshr_miss_rate::cpu0.data     0.004179                       # mshr miss rate for ReadSharedReq accesses
system.l2.ReadSharedReq_mshr_miss_rate::total     0.004179                       # mshr miss rate for ReadSharedReq accesses
system.l2.demand_mshr_miss_rate::cpu0.inst     0.108108                       # mshr miss rate for demand accesses
system.l2.demand_mshr_miss_rate::cpu0.data     0.008361                       # mshr miss rate for demand accesses
system.l2.demand_mshr_miss_rate::total       0.008368                       # mshr miss rate for demand accesses
system.l2.overall_mshr_miss_rate::cpu0.inst     0.108108                       # mshr miss rate for overall accesses
system.l2.overall_mshr_miss_rate::cpu0.data     0.008361                       # mshr miss rate for overall accesses
system.l2.overall_mshr_miss_rate::total      0.008368                       # mshr miss rate for overall accesses
system.l2.ReadExReq_avg_mshr_miss_latency::cpu0.data 94486.944878                       # average ReadExReq mshr miss latency
system.l2.ReadExReq_avg_mshr_miss_latency::total 94486.944878                       # average ReadExReq mshr miss latency
system.l2.ReadCleanReq_avg_mshr_miss_latency::cpu0.inst 343437.500000                       # average ReadCleanReq mshr miss latency
system.l2.ReadCleanReq_avg_mshr_miss_latency::total 343437.500000                       # average ReadCleanReq mshr miss latency
system.l2.ReadSharedReq_avg_mshr_miss_latency::cpu0.data 104587.267363                       # average ReadSharedReq mshr miss latency
system.l2.ReadSharedReq_avg_mshr_miss_latency::total 104587.267363                       # average ReadSharedReq mshr miss latency
system.l2.demand_avg_mshr_miss_latency::cpu0.inst 343437.500000                       # average overall mshr miss latency
system.l2.demand_avg_mshr_miss_latency::cpu0.data 99494.486328                       # average overall mshr miss latency
system.l2.demand_avg_mshr_miss_latency::total 99713.884205                       # average overall mshr miss latency
system.l2.overall_avg_mshr_miss_latency::cpu0.inst 343437.500000                       # average overall mshr miss latency
system.l2.overall_avg_mshr_miss_latency::cpu0.data 99494.486328                       # average overall mshr miss latency
system.l2.overall_avg_mshr_miss_latency::total 99713.884205                       # average overall mshr miss latency
system.membus.snoop_filter.tot_requests         17799                       # Total number of requests made to the snoop filter.
system.membus.snoop_filter.hit_single_requests         8904                       # Number of requests hitting in the snoop filter with a single holder of the requested data.
system.membus.snoop_filter.hit_multi_requests            0                       # Number of requests hitting in the snoop filter with multiple (>1) holders of the requested data.
system.membus.snoop_filter.tot_snoops               0                       # Total number of snoops made to the snoop filter.
system.membus.snoop_filter.hit_single_snoops            0                       # Number of snoops hitting in the snoop filter with a single holder of the requested data.
system.membus.snoop_filter.hit_multi_snoops            0                       # Number of snoops hitting in the snoop filter with multiple (>1) holders of the requested data.
system.membus.pwrStateResidencyTicks::UNDEFINED  15267344125                       # Cumulative time (in ticks) in various power states
system.membus.trans_dist::ReadResp               4414                       # Transaction distribution
system.membus.trans_dist::WritebackDirty          663                       # Transaction distribution
system.membus.trans_dist::CleanEvict             8241                       # Transaction distribution
system.membus.trans_dist::ReadExReq              4481                       # Transaction distribution
system.membus.trans_dist::ReadExResp             4481                       # Transaction distribution
system.membus.trans_dist::ReadSharedReq          4414                       # Transaction distribution
system.membus.pkt_count_system.l2.mem_side::system.mem_ctrls.port        26694                       # Packet count per connected master and slave (bytes)
system.membus.pkt_count_system.l2.mem_side::total        26694                       # Packet count per connected master and slave (bytes)
system.membus.pkt_count::total                  26694                       # Packet count per connected master and slave (bytes)
system.membus.pkt_size_system.l2.mem_side::system.mem_ctrls.port       611712                       # Cumulative packet size per connected master and slave (bytes)
system.membus.pkt_size_system.l2.mem_side::total       611712                       # Cumulative packet size per connected master and slave (bytes)
system.membus.pkt_size::total                  611712                       # Cumulative packet size per connected master and slave (bytes)
system.membus.snoops                                0                       # Total snoops (count)
system.membus.snoopTraffic                          0                       # Total snoop traffic (bytes)
system.membus.snoop_fanout::samples              8895                       # Request fanout histogram
system.membus.snoop_fanout::mean                    0                       # Request fanout histogram
system.membus.snoop_fanout::stdev                   0                       # Request fanout histogram
system.membus.snoop_fanout::underflows              0      0.00%      0.00% # Request fanout histogram
system.membus.snoop_fanout::0                    8895    100.00%    100.00% # Request fanout histogram
system.membus.snoop_fanout::1                       0      0.00%    100.00% # Request fanout histogram
system.membus.snoop_fanout::overflows               0      0.00%    100.00% # Request fanout histogram
system.membus.snoop_fanout::min_value               0                       # Request fanout histogram
system.membus.snoop_fanout::max_value               0                       # Request fanout histogram
system.membus.snoop_fanout::total                8895                       # Request fanout histogram
system.membus.reqLayer12.occupancy           22684000                       # Layer occupancy (ticks)
system.membus.reqLayer12.utilization              0.1                       # Layer utilization (%)
system.membus.respLayer1.occupancy           48254500                       # Layer occupancy (ticks)
system.membus.respLayer1.utilization              0.3                       # Layer utilization (%)
system.tol2bus.snoop_filter.tot_requests      2126073                       # Total number of requests made to the snoop filter.
system.tol2bus.snoop_filter.hit_single_requests      1063037                       # Number of requests hitting in the snoop filter with a single holder of the requested data.
system.tol2bus.snoop_filter.hit_multi_requests         1368                       # Number of requests hitting in the snoop filter with multiple (>1) holders of the requested data.
system.tol2bus.snoop_filter.tot_snoops              0                       # Total number of snoops made to the snoop filter.
system.tol2bus.snoop_filter.hit_single_snoops            0                       # Number of snoops hitting in the snoop filter with a single holder of the requested data.
system.tol2bus.snoop_filter.hit_multi_snoops            0                       # Number of snoops hitting in the snoop filter with multiple (>1) holders of the requested data.
system.tol2bus.pwrStateResidencyTicks::UNDEFINED  15267344125                       # Cumulative time (in ticks) in various power states
system.tol2bus.trans_dist::ReadResp           1054452                       # Transaction distribution
system.tol2bus.trans_dist::WritebackDirty      1048657                       # Transaction distribution
system.tol2bus.trans_dist::WritebackClean           75                       # Transaction distribution
system.tol2bus.trans_dist::CleanEvict           23209                       # Transaction distribution
system.tol2bus.trans_dist::ReadExReq             8585                       # Transaction distribution
system.tol2bus.trans_dist::ReadExResp            8585                       # Transaction distribution
system.tol2bus.trans_dist::ReadCleanReq            75                       # Transaction distribution
system.tol2bus.trans_dist::ReadSharedReq      1054376                       # Transaction distribution
system.tol2bus.pkt_count_system.cpu0.icache.mem_side::system.l2.cpu_side          224                       # Packet count per connected master and slave (bytes)
system.tol2bus.pkt_count_system.cpu0.dcache.mem_side::system.l2.cpu_side      3188885                       # Packet count per connected master and slave (bytes)
system.tol2bus.pkt_count::total               3189109                       # Packet count per connected master and slave (bytes)
system.tol2bus.pkt_size_system.cpu0.icache.mem_side::system.l2.cpu_side         9536                       # Cumulative packet size per connected master and slave (bytes)
system.tol2bus.pkt_size_system.cpu0.dcache.mem_side::system.l2.cpu_side    135101184                       # Cumulative packet size per connected master and slave (bytes)
system.tol2bus.pkt_size::total              135110720                       # Cumulative packet size per connected master and slave (bytes)
system.tol2bus.snoops                            8905                       # Total snoops (count)
system.tol2bus.snoopTraffic                     42496                       # Total snoop traffic (bytes)
system.tol2bus.snoop_fanout::samples          1071940                       # Request fanout histogram
system.tol2bus.snoop_fanout::mean            0.001276                       # Request fanout histogram
system.tol2bus.snoop_fanout::stdev           0.035701                       # Request fanout histogram
system.tol2bus.snoop_fanout::underflows             0      0.00%      0.00% # Request fanout histogram
system.tol2bus.snoop_fanout::0                1070572     99.87%     99.87% # Request fanout histogram
system.tol2bus.snoop_fanout::1                   1368      0.13%    100.00% # Request fanout histogram
system.tol2bus.snoop_fanout::2                      0      0.00%    100.00% # Request fanout histogram
system.tol2bus.snoop_fanout::3                      0      0.00%    100.00% # Request fanout histogram
system.tol2bus.snoop_fanout::4                      0      0.00%    100.00% # Request fanout histogram
system.tol2bus.snoop_fanout::5                      0      0.00%    100.00% # Request fanout histogram
system.tol2bus.snoop_fanout::6                      0      0.00%    100.00% # Request fanout histogram
system.tol2bus.snoop_fanout::7                      0      0.00%    100.00% # Request fanout histogram
system.tol2bus.snoop_fanout::8                      0      0.00%    100.00% # Request fanout histogram
system.tol2bus.snoop_fanout::9                      0      0.00%    100.00% # Request fanout histogram
system.tol2bus.snoop_fanout::10                     0      0.00%    100.00% # Request fanout histogram
system.tol2bus.snoop_fanout::11                     0      0.00%    100.00% # Request fanout histogram
system.tol2bus.snoop_fanout::12                     0      0.00%    100.00% # Request fanout histogram
system.tol2bus.snoop_fanout::13                     0      0.00%    100.00% # Request fanout histogram
system.tol2bus.snoop_fanout::14                     0      0.00%    100.00% # Request fanout histogram
system.tol2bus.snoop_fanout::15                     0      0.00%    100.00% # Request fanout histogram
system.tol2bus.snoop_fanout::16                     0      0.00%    100.00% # Request fanout histogram
system.tol2bus.snoop_fanout::17                     0      0.00%    100.00% # Request fanout histogram
system.tol2bus.snoop_fanout::18                     0      0.00%    100.00% # Request fanout histogram
system.tol2bus.snoop_fanout::19                     0      0.00%    100.00% # Request fanout histogram
system.tol2bus.snoop_fanout::20                     0      0.00%    100.00% # Request fanout histogram
system.tol2bus.snoop_fanout::21                     0      0.00%    100.00% # Request fanout histogram
system.tol2bus.snoop_fanout::22                     0      0.00%    100.00% # Request fanout histogram
system.tol2bus.snoop_fanout::23                     0      0.00%    100.00% # Request fanout histogram
system.tol2bus.snoop_fanout::24                     0      0.00%    100.00% # Request fanout histogram
system.tol2bus.snoop_fanout::overflows              0      0.00%    100.00% # Request fanout histogram
system.tol2bus.snoop_fanout::min_value              0                       # Request fanout histogram
system.tol2bus.snoop_fanout::max_value              1                       # Request fanout histogram
system.tol2bus.snoop_fanout::total            1071940                       # Request fanout histogram
system.tol2bus.reqLayer0.occupancy         2111105500                       # Layer occupancy (ticks)
system.tol2bus.reqLayer0.utilization             13.8                       # Layer utilization (%)
system.tol2bus.respLayer0.occupancy            112500                       # Layer occupancy (ticks)
system.tol2bus.respLayer0.utilization             0.0                       # Layer utilization (%)
system.tol2bus.respLayer1.occupancy        1594443000                       # Layer occupancy (ticks)
system.tol2bus.respLayer1.utilization            10.4                       # Layer utilization (%)

---------- End Simulation Statistics   ----------
