
---------- Begin Simulation Statistics ----------
sim_seconds                                  0.015267                       # Number of seconds simulated
sim_ticks                                 15267344125                       # Number of ticks simulated
final_tick                               4198519634375                       # Number of ticks from beginning of simulation (restored from checkpoints and never reset)
sim_freq                                 1000000000000                       # Frequency of simulated ticks
host_inst_rate                               80743193                       # Simulator instruction rate (inst/s)
host_op_rate                                150495444                       # Simulator op (including micro ops) rate (op/s)
host_tick_rate                              204328641                       # Simulator tick rate (ticks/s)
host_mem_usage                                3428876                       # Number of bytes of host memory used
host_seconds                                    74.72                       # Real time elapsed on the host
sim_insts                                  6033093617                       # Number of instructions simulated
sim_ops                                   11244950658                       # Number of ops (including micro ops) simulated
system.voltage_domain.voltage                       1                       # Voltage in Volts
system.clk_domain.clock                          1000                       # Clock period in ticks
system.mem_ctrls.pwrStateResidencyTicks::UNDEFINED  15267344125                       # Cumulative time (in ticks) in various power states
system.mem_ctrls.bytes_read::cpu0.inst            448                       # Number of bytes read from this memory
system.mem_ctrls.bytes_read::cpu0.data        7445440                       # Number of bytes read from this memory
system.mem_ctrls.bytes_read::total            7445888                       # Number of bytes read from this memory
system.mem_ctrls.bytes_inst_read::cpu0.inst          448                       # Number of instructions bytes read from this memory
system.mem_ctrls.bytes_inst_read::total           448                       # Number of instructions bytes read from this memory
system.mem_ctrls.bytes_written::writebacks        32576                       # Number of bytes written to this memory
system.mem_ctrls.bytes_written::total           32576                       # Number of bytes written to this memory
system.mem_ctrls.num_reads::cpu0.inst               7                       # Number of read requests responded to by this memory
system.mem_ctrls.num_reads::cpu0.data          116335                       # Number of read requests responded to by this memory
system.mem_ctrls.num_reads::total              116342                       # Number of read requests responded to by this memory
system.mem_ctrls.num_writes::writebacks           509                       # Number of write requests responded to by this memory
system.mem_ctrls.num_writes::total                509                       # Number of write requests responded to by this memory
system.mem_ctrls.bw_read::cpu0.inst             29344                       # Total read bandwidth from this memory (bytes/s)
system.mem_ctrls.bw_read::cpu0.data         487670936                       # Total read bandwidth from this memory (bytes/s)
system.mem_ctrls.bw_read::total             487700280                       # Total read bandwidth from this memory (bytes/s)
system.mem_ctrls.bw_inst_read::cpu0.inst        29344                       # Instruction read bandwidth from this memory (bytes/s)
system.mem_ctrls.bw_inst_read::total            29344                       # Instruction read bandwidth from this memory (bytes/s)
system.mem_ctrls.bw_write::writebacks         2133704                       # Write bandwidth from this memory (bytes/s)
system.mem_ctrls.bw_write::total              2133704                       # Write bandwidth from this memory (bytes/s)
system.mem_ctrls.bw_total::writebacks         2133704                       # Total bandwidth to/from this memory (bytes/s)
system.mem_ctrls.bw_total::cpu0.inst            29344                       # Total bandwidth to/from this memory (bytes/s)
system.mem_ctrls.bw_total::cpu0.data        487670936                       # Total bandwidth to/from this memory (bytes/s)
system.mem_ctrls.bw_total::total            489833984                       # Total bandwidth to/from this memory (bytes/s)
system.mem_ctrls.readReqs                      116343                       # Number of read requests accepted
system.mem_ctrls.writeReqs                        509                       # Number of write requests accepted
system.mem_ctrls.readBursts                    116343                       # Number of DRAM read bursts, including those serviced by the write queue
system.mem_ctrls.writeBursts                      509                       # Number of DRAM write bursts, including those merged in the write queue
system.mem_ctrls.bytesReadDRAM                7440704                       # Total number of bytes read from DRAM
system.mem_ctrls.bytesReadWrQ                    5248                       # Total number of bytes read from write queue
system.mem_ctrls.bytesWritten                   33024                       # Total number of bytes written to DRAM
system.mem_ctrls.bytesReadSys                 7445952                       # Total read bytes from the system interface side
system.mem_ctrls.bytesWrittenSys                32576                       # Total written bytes from the system interface side
system.mem_ctrls.servicedByWrQ                     82                       # Number of DRAM read bursts serviced by the write queue
system.mem_ctrls.mergedWrBursts                     0                       # Number of DRAM write bursts merged with an existing one
system.mem_ctrls.neitherReadNorWriteReqs            0                       # Number of requests that are neither read nor write
system.mem_ctrls.perBankRdBursts::0              6638                       # Per bank write bursts
system.mem_ctrls.perBankRdBursts::1              6774                       # Per bank write bursts
system.mem_ctrls.perBankRdBursts::2              7254                       # Per bank write bursts
system.mem_ctrls.perBankRdBursts::3              7813                       # Per bank write bursts
system.mem_ctrls.perBankRdBursts::4              8137                       # Per bank write bursts
system.mem_ctrls.perBankRdBursts::5              8225                       # Per bank write bursts
system.mem_ctrls.perBankRdBursts::6              7921                       # Per bank write bursts
system.mem_ctrls.perBankRdBursts::7              7401                       # Per bank write bursts
system.mem_ctrls.perBankRdBursts::8              7224                       # Per bank write bursts
system.mem_ctrls.perBankRdBursts::9              7287                       # Per bank write bursts
system.mem_ctrls.perBankRdBursts::10             7248                       # Per bank write bursts
system.mem_ctrls.perBankRdBursts::11             7089                       # Per bank write bursts
system.mem_ctrls.perBankRdBursts::12             6891                       # Per bank write bursts
system.mem_ctrls.perBankRdBursts::13             6819                       # Per bank write bursts
system.mem_ctrls.perBankRdBursts::14             6732                       # Per bank write bursts
system.mem_ctrls.perBankRdBursts::15             6808                       # Per bank write bursts
system.mem_ctrls.perBankWrBursts::0                 9                       # Per bank write bursts
system.mem_ctrls.perBankWrBursts::1                 8                       # Per bank write bursts
system.mem_ctrls.perBankWrBursts::2                16                       # Per bank write bursts
system.mem_ctrls.perBankWrBursts::3                39                       # Per bank write bursts
system.mem_ctrls.perBankWrBursts::4                15                       # Per bank write bursts
system.mem_ctrls.perBankWrBursts::5                90                       # Per bank write bursts
system.mem_ctrls.perBankWrBursts::6                39                       # Per bank write bursts
system.mem_ctrls.perBankWrBursts::7                65                       # Per bank write bursts
system.mem_ctrls.perBankWrBursts::8                85                       # Per bank write bursts
system.mem_ctrls.perBankWrBursts::9                63                       # Per bank write bursts
system.mem_ctrls.perBankWrBursts::10               39                       # Per bank write bursts
system.mem_ctrls.perBankWrBursts::11               38                       # Per bank write bursts
system.mem_ctrls.perBankWrBursts::12                2                       # Per bank write bursts
system.mem_ctrls.perBankWrBursts::13                3                       # Per bank write bursts
system.mem_ctrls.perBankWrBursts::14                1                       # Per bank write bursts
system.mem_ctrls.perBankWrBursts::15                4                       # Per bank write bursts
system.mem_ctrls.numRdRetry                         0                       # Number of times read queue was full causing retry
system.mem_ctrls.numWrRetry                         0                       # Number of times write queue was full causing retry
system.mem_ctrls.totGap                   15267345000                       # Total gap between requests
system.mem_ctrls.readPktSize::0                     0                       # Read request sizes (log2)
system.mem_ctrls.readPktSize::1                     0                       # Read request sizes (log2)
system.mem_ctrls.readPktSize::2                     0                       # Read request sizes (log2)
system.mem_ctrls.readPktSize::3                     0                       # Read request sizes (log2)
system.mem_ctrls.readPktSize::4                     0                       # Read request sizes (log2)
system.mem_ctrls.readPktSize::5                     0                       # Read request sizes (log2)
system.mem_ctrls.readPktSize::6                116343                       # Read request sizes (log2)
system.mem_ctrls.writePktSize::0                    0                       # Write request sizes (log2)
system.mem_ctrls.writePktSize::1                    0                       # Write request sizes (log2)
system.mem_ctrls.writePktSize::2                    0                       # Write request sizes (log2)
system.mem_ctrls.writePktSize::3                    0                       # Write request sizes (log2)
system.mem_ctrls.writePktSize::4                    0                       # Write request sizes (log2)
system.mem_ctrls.writePktSize::5                    0                       # Write request sizes (log2)
system.mem_ctrls.writePktSize::6                  509                       # Write request sizes (log2)
system.mem_ctrls.rdQLenPdf::0                   92760                       # What read queue length does an incoming req see
system.mem_ctrls.rdQLenPdf::1                   21503                       # What read queue length does an incoming req see
system.mem_ctrls.rdQLenPdf::2                    1894                       # What read queue length does an incoming req see
system.mem_ctrls.rdQLenPdf::3                     104                       # What read queue length does an incoming req see
system.mem_ctrls.rdQLenPdf::4                       0                       # What read queue length does an incoming req see
system.mem_ctrls.rdQLenPdf::5                       0                       # What read queue length does an incoming req see
system.mem_ctrls.rdQLenPdf::6                       0                       # What read queue length does an incoming req see
system.mem_ctrls.rdQLenPdf::7                       0                       # What read queue length does an incoming req see
system.mem_ctrls.rdQLenPdf::8                       0                       # What read queue length does an incoming req see
system.mem_ctrls.rdQLenPdf::9                       0                       # What read queue length does an incoming req see
system.mem_ctrls.rdQLenPdf::10                      0                       # What read queue length does an incoming req see
system.mem_ctrls.rdQLenPdf::11                      0                       # What read queue length does an incoming req see
system.mem_ctrls.rdQLenPdf::12                      0                       # What read queue length does an incoming req see
system.mem_ctrls.rdQLenPdf::13                      0                       # What read queue length does an incoming req see
system.mem_ctrls.rdQLenPdf::14                      0                       # What read queue length does an incoming req see
system.mem_ctrls.rdQLenPdf::15                      0                       # What read queue length does an incoming req see
system.mem_ctrls.rdQLenPdf::16                      0                       # What read queue length does an incoming req see
system.mem_ctrls.rdQLenPdf::17                      0                       # What read queue length does an incoming req see
system.mem_ctrls.rdQLenPdf::18                      0                       # What read queue length does an incoming req see
system.mem_ctrls.rdQLenPdf::19                      0                       # What read queue length does an incoming req see
system.mem_ctrls.rdQLenPdf::20                      0                       # What read queue length does an incoming req see
system.mem_ctrls.rdQLenPdf::21                      0                       # What read queue length does an incoming req see
system.mem_ctrls.rdQLenPdf::22                      0                       # What read queue length does an incoming req see
system.mem_ctrls.rdQLenPdf::23                      0                       # What read queue length does an incoming req see
system.mem_ctrls.rdQLenPdf::24                      0                       # What read queue length does an incoming req see
system.mem_ctrls.rdQLenPdf::25                      0                       # What read queue length does an incoming req see
system.mem_ctrls.rdQLenPdf::26                      0                       # What read queue length does an incoming req see
system.mem_ctrls.rdQLenPdf::27                      0                       # What read queue length does an incoming req see
system.mem_ctrls.rdQLenPdf::28                      0                       # What read queue length does an incoming req see
system.mem_ctrls.rdQLenPdf::29                      0                       # What read queue length does an incoming req see
system.mem_ctrls.rdQLenPdf::30                      0                       # What read queue length does an incoming req see
system.mem_ctrls.rdQLenPdf::31                      0                       # What read queue length does an incoming req see
system.mem_ctrls.wrQLenPdf::0                       0                       # What write queue length does an incoming req see
system.mem_ctrls.wrQLenPdf::1                       0                       # What write queue length does an incoming req see
system.mem_ctrls.wrQLenPdf::2                       0                       # What write queue length does an incoming req see
system.mem_ctrls.wrQLenPdf::3                       0                       # What write queue length does an incoming req see
system.mem_ctrls.wrQLenPdf::4                       0                       # What write queue length does an incoming req see
system.mem_ctrls.wrQLenPdf::5                       0                       # What write queue length does an incoming req see
system.mem_ctrls.wrQLenPdf::6                       0                       # What write queue length does an incoming req see
system.mem_ctrls.wrQLenPdf::7                       0                       # What write queue length does an incoming req see
system.mem_ctrls.wrQLenPdf::8                       0                       # What write queue length does an incoming req see
system.mem_ctrls.wrQLenPdf::9                       0                       # What write queue length does an incoming req see
system.mem_ctrls.wrQLenPdf::10                      0                       # What write queue length does an incoming req see
system.mem_ctrls.wrQLenPdf::11                      0                       # What write queue length does an incoming req see
system.mem_ctrls.wrQLenPdf::12                      0                       # What write queue length does an incoming req see
system.mem_ctrls.wrQLenPdf::13                      0                       # What write queue length does an incoming req see
system.mem_ctrls.wrQLenPdf::14                      0                       # What write queue length does an incoming req see
system.mem_ctrls.wrQLenPdf::15                      2                       # What write queue length does an incoming req see
system.mem_ctrls.wrQLenPdf::16                      2                       # What write queue length does an incoming req see
system.mem_ctrls.wrQLenPdf::17                     31                       # What write queue length does an incoming req see
system.mem_ctrls.wrQLenPdf::18                     32                       # What write queue length does an incoming req see
system.mem_ctrls.wrQLenPdf::19                     32                       # What write queue length does an incoming req see
system.mem_ctrls.wrQLenPdf::20                     32                       # What write queue length does an incoming req see
system.mem_ctrls.wrQLenPdf::21                     32                       # What write queue length does an incoming req see
system.mem_ctrls.wrQLenPdf::22                     32                       # What write queue length does an incoming req see
system.mem_ctrls.wrQLenPdf::23                     32                       # What write queue length does an incoming req see
system.mem_ctrls.wrQLenPdf::24                     31                       # What write queue length does an incoming req see
system.mem_ctrls.wrQLenPdf::25                     31                       # What write queue length does an incoming req see
system.mem_ctrls.wrQLenPdf::26                     31                       # What write queue length does an incoming req see
system.mem_ctrls.wrQLenPdf::27                     31                       # What write queue length does an incoming req see
system.mem_ctrls.wrQLenPdf::28                     31                       # What write queue length does an incoming req see
system.mem_ctrls.wrQLenPdf::29                     31                       # What write queue length does an incoming req see
system.mem_ctrls.wrQLenPdf::30                     32                       # What write queue length does an incoming req see
system.mem_ctrls.wrQLenPdf::31                     32                       # What write queue length does an incoming req see
system.mem_ctrls.wrQLenPdf::32                     32                       # What write queue length does an incoming req see
system.mem_ctrls.wrQLenPdf::33                      0                       # What write queue length does an incoming req see
system.mem_ctrls.wrQLenPdf::34                      0                       # What write queue length does an incoming req see
system.mem_ctrls.wrQLenPdf::35                      0                       # What write queue length does an incoming req see
system.mem_ctrls.wrQLenPdf::36                      0                       # What write queue length does an incoming req see
system.mem_ctrls.wrQLenPdf::37                      0                       # What write queue length does an incoming req see
system.mem_ctrls.wrQLenPdf::38                      0                       # What write queue length does an incoming req see
system.mem_ctrls.wrQLenPdf::39                      0                       # What write queue length does an incoming req see
system.mem_ctrls.wrQLenPdf::40                      0                       # What write queue length does an incoming req see
system.mem_ctrls.wrQLenPdf::41                      0                       # What write queue length does an incoming req see
system.mem_ctrls.wrQLenPdf::42                      0                       # What write queue length does an incoming req see
system.mem_ctrls.wrQLenPdf::43                      0                       # What write queue length does an incoming req see
system.mem_ctrls.wrQLenPdf::44                      0                       # What write queue length does an incoming req see
system.mem_ctrls.wrQLenPdf::45                      0                       # What write queue length does an incoming req see
system.mem_ctrls.wrQLenPdf::46                      0                       # What write queue length does an incoming req see
system.mem_ctrls.wrQLenPdf::47                      0                       # What write queue length does an incoming req see
system.mem_ctrls.wrQLenPdf::48                      0                       # What write queue length does an incoming req see
system.mem_ctrls.wrQLenPdf::49                      0                       # What write queue length does an incoming req see
system.mem_ctrls.wrQLenPdf::50                      0                       # What write queue length does an incoming req see
system.mem_ctrls.wrQLenPdf::51                      0                       # What write queue length does an incoming req see
system.mem_ctrls.wrQLenPdf::52                      0                       # What write queue length does an incoming req see
system.mem_ctrls.wrQLenPdf::53                      0                       # What write queue length does an incoming req see
system.mem_ctrls.wrQLenPdf::54                      0                       # What write queue length does an incoming req see
system.mem_ctrls.wrQLenPdf::55                      0                       # What write queue length does an incoming req see
system.mem_ctrls.wrQLenPdf::56                      0                       # What write queue length does an incoming req see
system.mem_ctrls.wrQLenPdf::57                      0                       # What write queue length does an incoming req see
system.mem_ctrls.wrQLenPdf::58                      0                       # What write queue length does an incoming req see
system.mem_ctrls.wrQLenPdf::59                      0                       # What write queue length does an incoming req see
system.mem_ctrls.wrQLenPdf::60                      0                       # What write queue length does an incoming req see
system.mem_ctrls.wrQLenPdf::61                      0                       # What write queue length does an incoming req see
system.mem_ctrls.wrQLenPdf::62                      0                       # What write queue length does an incoming req see
system.mem_ctrls.wrQLenPdf::63                      0                       # What write queue length does an incoming req see
system.mem_ctrls.bytesPerActivate::samples        77069                       # Bytes accessed per row activation
system.mem_ctrls.bytesPerActivate::mean     96.977825                       # Bytes accessed per row activation
system.mem_ctrls.bytesPerActivate::gmean    86.448995                       # Bytes accessed per row activation
system.mem_ctrls.bytesPerActivate::stdev    55.176836                       # Bytes accessed per row activation
system.mem_ctrls.bytesPerActivate::64-127        50457     65.47%     65.47% # Bytes accessed per row activation
system.mem_ctrls.bytesPerActivate::128-191        17658     22.91%     88.38% # Bytes accessed per row activation
system.mem_ctrls.bytesPerActivate::192-255         6010      7.80%     96.18% # Bytes accessed per row activation
system.mem_ctrls.bytesPerActivate::256-319         2092      2.71%     98.89% # Bytes accessed per row activation
system.mem_ctrls.bytesPerActivate::320-383          619      0.80%     99.70% # Bytes accessed per row activation
system.mem_ctrls.bytesPerActivate::384-447          163      0.21%     99.91% # Bytes accessed per row activation
system.mem_ctrls.bytesPerActivate::448-511           47      0.06%     99.97% # Bytes accessed per row activation
system.mem_ctrls.bytesPerActivate::512-575           15      0.02%     99.99% # Bytes accessed per row activation
system.mem_ctrls.bytesPerActivate::576-639            2      0.00%     99.99% # Bytes accessed per row activation
system.mem_ctrls.bytesPerActivate::704-767            3      0.00%    100.00% # Bytes accessed per row activation
system.mem_ctrls.bytesPerActivate::768-831            2      0.00%    100.00% # Bytes accessed per row activation
system.mem_ctrls.bytesPerActivate::832-895            1      0.00%    100.00% # Bytes accessed per row activation
system.mem_ctrls.bytesPerActivate::total        77069                       # Bytes accessed per row activation
system.mem_ctrls.rdPerTurnAround::samples           32                       # Reads before turning the bus around for writes
system.mem_ctrls.rdPerTurnAround::mean    3700.781250                       # Reads before turning the bus around for writes
system.mem_ctrls.rdPerTurnAround::gmean   3570.340223                       # Reads before turning the bus around for writes
system.mem_ctrls.rdPerTurnAround::stdev    957.983390                       # Reads before turning the bus around for writes
system.mem_ctrls.rdPerTurnAround::1536-1791            1      3.12%      3.12% # Reads before turning the bus around for writes
system.mem_ctrls.rdPerTurnAround::2048-2303            1      3.12%      6.25% # Reads before turning the bus around for writes
system.mem_ctrls.rdPerTurnAround::2304-2559            3      9.38%     15.62% # Reads before turning the bus around for writes
system.mem_ctrls.rdPerTurnAround::2560-2815            1      3.12%     18.75% # Reads before turning the bus around for writes
system.mem_ctrls.rdPerTurnAround::2816-3071            3      9.38%     28.12% # Reads before turning the bus around for writes
system.mem_ctrls.rdPerTurnAround::3072-3327            3      9.38%     37.50% # Reads before turning the bus around for writes
system.mem_ctrls.rdPerTurnAround::3328-3583            2      6.25%     43.75% # Reads before turning the bus around for writes
system.mem_ctrls.rdPerTurnAround::3584-3839            1      3.12%     46.88% # Reads before turning the bus around for writes
system.mem_ctrls.rdPerTurnAround::3840-4095            6     18.75%     65.62% # Reads before turning the bus around for writes
system.mem_ctrls.rdPerTurnAround::4096-4351            3      9.38%     75.00% # Reads before turning the bus around for writes
system.mem_ctrls.rdPerTurnAround::4352-4607            1      3.12%     78.12% # Reads before turning the bus around for writes
system.mem_ctrls.rdPerTurnAround::4608-4863            2      6.25%     84.38% # Reads before turning the bus around for writes
system.mem_ctrls.rdPerTurnAround::4864-5119            2      6.25%     90.62% # Reads before turning the bus around for writes
system.mem_ctrls.rdPerTurnAround::5120-5375            3      9.38%    100.00% # Reads before turning the bus around for writes
system.mem_ctrls.rdPerTurnAround::total            32                       # Reads before turning the bus around for writes
system.mem_ctrls.wrPerTurnAround::samples           32                       # Writes before turning the bus around for reads
system.mem_ctrls.wrPerTurnAround::mean      16.125000                       # Writes before turning the bus around for reads
system.mem_ctrls.wrPerTurnAround::gmean     16.118218                       # Writes before turning the bus around for reads
system.mem_ctrls.wrPerTurnAround::stdev      0.491869                       # Writes before turning the bus around for reads
system.mem_ctrls.wrPerTurnAround::16               30     93.75%     93.75% # Writes before turning the bus around for reads
system.mem_ctrls.wrPerTurnAround::18                2      6.25%    100.00% # Writes before turning the bus around for reads
system.mem_ctrls.wrPerTurnAround::total            32                       # Writes before turning the bus around for reads
system.mem_ctrls.totQLat                   3218193750                       # Total ticks spent queuing
system.mem_ctrls.totMemAccLat              5398087500                       # Total ticks spent from burst creation until serviced by the DRAM
system.mem_ctrls.totBusLat                  581305000                       # Total ticks spent in databus transfers
system.mem_ctrls.avgQLat                     27680.77                       # Average queueing delay per DRAM burst
system.mem_ctrls.avgBusLat                    5000.00                       # Average bus latency per DRAM burst
system.mem_ctrls.avgMemAccLat                46430.77                       # Average memory access latency per DRAM burst
system.mem_ctrls.avgRdBW                       487.36                       # Average DRAM read bandwidth in MiByte/s
system.mem_ctrls.avgWrBW                         2.16                       # Average achieved write bandwidth in MiByte/s
system.mem_ctrls.avgRdBWSys                    487.70                       # Average system read bandwidth in MiByte/s
system.mem_ctrls.avgWrBWSys                      2.13                       # Average system write bandwidth in MiByte/s
system.mem_ctrls.peakBW                      12800.00                       # Theoretical peak bandwidth in MiByte/s
system.mem_ctrls.busUtil                         3.82                       # Data bus utilization in percentage
system.mem_ctrls.busUtilRead                     3.81                       # Data bus utilization in percentage for reads
system.mem_ctrls.busUtilWrite                    0.02                       # Data bus utilization in percentage for writes
system.mem_ctrls.avgRdQLen                       1.19                       # Average read queue length when enqueuing
system.mem_ctrls.avgWrQLen                      25.86                       # Average write queue length when enqueuing
system.mem_ctrls.readRowHits                    39343                       # Number of row buffer hits during reads
system.mem_ctrls.writeRowHits                     366                       # Number of row buffer hits during writes
system.mem_ctrls.readRowHitRate                 33.84                       # Row buffer hit rate for reads
system.mem_ctrls.writeRowHitRate                71.91                       # Row buffer hit rate for writes
system.mem_ctrls.avgGap                     130655.40                       # Average gap between requests
system.mem_ctrls.pageHitRate                    34.01                       # Row buffer hit rate, read and write combined
system.mem_ctrls_0.actEnergy                283286640                       # Energy for activate commands per rank (pJ)
system.mem_ctrls_0.preEnergy                150570420                       # Energy for precharge commands per rank (pJ)
system.mem_ctrls_0.readEnergy               429563820                       # Energy for read commands per rank (pJ)
system.mem_ctrls_0.writeEnergy                1466820                       # Energy for write commands per rank (pJ)
system.mem_ctrls_0.refreshEnergy         1210226160.000000                       # Energy for refresh commands per rank (pJ)
system.mem_ctrls_0.actBackEnergy           1202582010                       # Energy for active background per rank (pJ)
system.mem_ctrls_0.preBackEnergy             27417600                       # Energy for precharge background per rank (pJ)
system.mem_ctrls_0.actPowerDownEnergy      5196140520                       # Energy for active power-down per rank (pJ)
system.mem_ctrls_0.prePowerDownEnergy       402609600                       # Energy for precharge power-down per rank (pJ)
system.mem_ctrls_0.selfRefreshEnergy         41452800                       # Energy for self refresh per rank (pJ)
system.mem_ctrls_0.totalEnergy             8945500800                       # Total energy per rank (pJ)
system.mem_ctrls_0.averagePower            585.923834                       # Core power per rank (mW)
system.mem_ctrls_0.totalIdleTime          12558373000                       # Total Idle time Per DRAM Rank
system.mem_ctrls_0.memoryStateTime::IDLE     16788000                       # Time in different power states
system.mem_ctrls_0.memoryStateTime::REF     512120000                       # Time in different power states
system.mem_ctrls_0.memoryStateTime::SREF    114788250                       # Time in different power states
system.mem_ctrls_0.memoryStateTime::PRE_PDN   1048541750                       # Time in different power states
system.mem_ctrls_0.memoryStateTime::ACT    2180063125                       # Time in different power states
system.mem_ctrls_0.memoryStateTime::ACT_PDN  11395043000                       # Time in different power states
system.mem_ctrls_1.actEnergy                266978880                       # Energy for activate commands per rank (pJ)
system.mem_ctrls_1.preEnergy                141906435                       # Energy for precharge commands per rank (pJ)
system.mem_ctrls_1.readEnergy               400539720                       # Energy for read commands per rank (pJ)
system.mem_ctrls_1.writeEnergy                1226700                       # Energy for write commands per rank (pJ)
system.mem_ctrls_1.refreshEnergy         1215757920.000000                       # Energy for refresh commands per rank (pJ)
system.mem_ctrls_1.actBackEnergy           1143468450                       # Energy for active background per rank (pJ)
system.mem_ctrls_1.preBackEnergy             28798560                       # Energy for precharge background per rank (pJ)
system.mem_ctrls_1.actPowerDownEnergy      5159673630                       # Energy for active power-down per rank (pJ)
system.mem_ctrls_1.prePowerDownEnergy       468234240                       # Energy for precharge power-down per rank (pJ)
system.mem_ctrls_1.selfRefreshEnergy         57611160                       # Energy for self refresh per rank (pJ)
system.mem_ctrls_1.totalEnergy             8884266525                       # Total energy per rank (pJ)
system.mem_ctrls_1.averagePower            581.913033                       # Core power per rank (mW)
system.mem_ctrls_1.totalIdleTime          12684169750                       # Total Idle time Per DRAM Rank
system.mem_ctrls_1.memoryStateTime::IDLE     20370000                       # Time in different power states
system.mem_ctrls_1.memoryStateTime::REF     514526000                       # Time in different power states
system.mem_ctrls_1.memoryStateTime::SREF    150146750                       # Time in different power states
system.mem_ctrls_1.memoryStateTime::PRE_PDN   1219331500                       # Time in different power states
system.mem_ctrls_1.memoryStateTime::ACT    2048033750                       # Time in different power states
system.mem_ctrls_1.memoryStateTime::ACT_PDN  11314936125                       # Time in different power states
system.pwrStateResidencyTicks::UNDEFINED  15267344125                       # Cumulative time (in ticks) in various power states
system.cpu0.branchPred.lookups                3675004                       # Number of BP lookups
system.cpu0.branchPred.condPredicted          3675004                       # Number of conditional branches predicted
system.cpu0.branchPred.condIncorrect           151474                       # Number of conditional branches incorrect
system.cpu0.branchPred.BTBLookups             2882201                       # Number of BTB lookups
system.cpu0.branchPred.BTBHits                      0                       # Number of BTB hits
system.cpu0.branchPred.BTBCorrect                   0                       # Number of correct BTB predictions (this stat may not work properly.
system.cpu0.branchPred.BTBHitPct             0.000000                       # BTB Hit Percentage
system.cpu0.branchPred.usedRAS                  92356                       # Number of times the RAS was used to get a target.
system.cpu0.branchPred.RASInCorrect             13622                       # Number of incorrect RAS predictions.
system.cpu0.branchPred.indirectLookups        2882201                       # Number of indirect predictor lookups.
system.cpu0.branchPred.indirectHits           1577457                       # Number of indirect target hits.
system.cpu0.branchPred.indirectMisses         1304744                       # Number of indirect misses.
system.cpu0.branchPredindirectMispredicted        44944                       # Number of mispredicted indirect branches.
system.cpu_voltage_domain.voltage                   1                       # Voltage in Volts
system.cpu_clk_domain.clock                       500                       # Clock period in ticks
system.cpu0.dtb.walker.pwrStateResidencyTicks::UNDEFINED  15267344125                       # Cumulative time (in ticks) in various power states
system.cpu0.dtb.rdAccesses                    1782665                       # TLB accesses on read requests
system.cpu0.dtb.wrAccesses                     101213                       # TLB accesses on write requests
system.cpu0.dtb.rdMisses                       384103                       # TLB misses on read requests
system.cpu0.dtb.wrMisses                         1759                       # TLB misses on write requests
system.cpu0.apic_clk_domain.clock                8000                       # Clock period in ticks
system.cpu0.interrupts.pwrStateResidencyTicks::UNDEFINED  15267344125                       # Cumulative time (in ticks) in various power states
system.cpu0.itb.walker.pwrStateResidencyTicks::UNDEFINED  15267344125                       # Cumulative time (in ticks) in various power states
system.cpu0.itb.rdAccesses                          0                       # TLB accesses on read requests
system.cpu0.itb.wrAccesses                    3124394                       # TLB accesses on write requests
system.cpu0.itb.rdMisses                            0                       # TLB misses on read requests
system.cpu0.itb.wrMisses                        13202                       # TLB misses on write requests
system.cpu0.workload.numSyscalls                    0                       # Number of system calls
system.cpu0.pwrStateResidencyTicks::ON    15267344125                       # Cumulative time (in ticks) in various power states
system.cpu0.numCycles                        30534688                       # number of cpu cycles simulated
system.cpu0.numWorkItemsStarted                     0                       # number of work items this cpu started
system.cpu0.numWorkItemsCompleted                   0                       # number of work items this cpu completed
system.cpu0.fetch.icacheStallCycles           3187246                       # Number of cycles fetch is stalled on an Icache miss
system.cpu0.fetch.Insts                      10510349                       # Number of instructions fetch has processed
system.cpu0.fetch.Branches                    3675004                       # Number of branches that fetch encountered
system.cpu0.fetch.predictedBranches           1669813                       # Number of branches that fetch has predicted taken
system.cpu0.fetch.Cycles                     27043837                       # Number of cycles fetch has run and was not squashing or blocked
system.cpu0.fetch.SquashCycles                 310890                       # Number of cycles fetch has spent squashing
system.cpu0.fetch.TlbCycles                      2226                       # Number of cycles fetch has spent waiting for tlb
system.cpu0.fetch.MiscStallCycles                2555                       # Number of cycles fetch has spent waiting on interrupts, or bad addresses, or out of MSHRs
system.cpu0.fetch.PendingTrapStallCycles       106137                       # Number of stall cycles due to pending traps
system.cpu0.fetch.CacheLines                  3111192                       # Number of cache lines fetched
system.cpu0.fetch.IcacheSquashes                21390                       # Number of outstanding Icache misses that were squashed
system.cpu0.fetch.ItlbSquashes                     26                       # Number of outstanding ITLB misses that were squashed
system.cpu0.fetch.rateDist::samples          30497446                       # Number of instructions fetched each cycle (Total)
system.cpu0.fetch.rateDist::mean             0.692310                       # Number of instructions fetched each cycle (Total)
system.cpu0.fetch.rateDist::stdev            2.030628                       # Number of instructions fetched each cycle (Total)
system.cpu0.fetch.rateDist::underflows              0      0.00%      0.00% # Number of instructions fetched each cycle (Total)
system.cpu0.fetch.rateDist::0                26387699     86.52%     86.52% # Number of instructions fetched each cycle (Total)
system.cpu0.fetch.rateDist::1                   38468      0.13%     86.65% # Number of instructions fetched each cycle (Total)
system.cpu0.fetch.rateDist::2                 1556211      5.10%     91.75% # Number of instructions fetched each cycle (Total)
system.cpu0.fetch.rateDist::3                   51787      0.17%     91.92% # Number of instructions fetched each cycle (Total)
system.cpu0.fetch.rateDist::4                  281304      0.92%     92.85% # Number of instructions fetched each cycle (Total)
system.cpu0.fetch.rateDist::5                  122982      0.40%     93.25% # Number of instructions fetched each cycle (Total)
system.cpu0.fetch.rateDist::6                  180533      0.59%     93.84% # Number of instructions fetched each cycle (Total)
system.cpu0.fetch.rateDist::7                   43577      0.14%     93.98% # Number of instructions fetched each cycle (Total)
system.cpu0.fetch.rateDist::8                 1834885      6.02%    100.00% # Number of instructions fetched each cycle (Total)
system.cpu0.fetch.rateDist::overflows               0      0.00%    100.00% # Number of instructions fetched each cycle (Total)
system.cpu0.fetch.rateDist::min_value               0                       # Number of instructions fetched each cycle (Total)
system.cpu0.fetch.rateDist::max_value               8                       # Number of instructions fetched each cycle (Total)
system.cpu0.fetch.rateDist::total            30497446                       # Number of instructions fetched each cycle (Total)
system.cpu0.fetch.branchRate                 0.120355                       # Number of branch fetches per cycle
system.cpu0.fetch.rate                       0.344210                       # Number of inst fetches per cycle
system.cpu0.decode.IdleCycles                 1634027                       # Number of cycles decode is idle
system.cpu0.decode.BlockedCycles             25949749                       # Number of cycles decode is blocked
system.cpu0.decode.RunCycles                  2070806                       # Number of cycles decode is running
system.cpu0.decode.UnblockCycles               687419                       # Number of cycles decode is unblocking
system.cpu0.decode.SquashCycles                155445                       # Number of cycles decode is squashing
system.cpu0.decode.DecodedInsts              17711313                       # Number of instructions handled by decode
system.cpu0.rename.SquashCycles                155445                       # Number of cycles rename is squashing
system.cpu0.rename.IdleCycles                 1875753                       # Number of cycles rename is idle
system.cpu0.rename.BlockCycles               23520305                       # Number of cycles rename is blocking
system.cpu0.rename.serializeStallCycles         26893                       # count of cycles rename stalled for serializing inst
system.cpu0.rename.RunCycles                  2371090                       # Number of cycles rename is running
system.cpu0.rename.UnblockCycles              2547960                       # Number of cycles rename is unblocking
system.cpu0.rename.RenamedInsts              17024937                       # Number of instructions processed by rename
system.cpu0.rename.ROBFullEvents                82659                       # Number of times rename has blocked due to ROB full
system.cpu0.rename.IQFullEvents               2196022                       # Number of times rename has blocked due to IQ full
system.cpu0.rename.LQFullEvents                231064                       # Number of times rename has blocked due to LQ full
system.cpu0.rename.SQFullEvents                  9719                       # Number of times rename has blocked due to SQ full
system.cpu0.rename.RenamedOperands           20297511                       # Number of destination operands rename has renamed
system.cpu0.rename.RenameLookups             47610582                       # Number of register rename lookups that rename has made
system.cpu0.rename.int_rename_lookups        22132542                       # Number of integer rename lookups
system.cpu0.rename.fp_rename_lookups            75496                       # Number of floating rename lookups
system.cpu0.rename.CommittedMaps              7459728                       # Number of HB maps that are committed
system.cpu0.rename.UndoneMaps                12837843                       # Number of HB maps that are undone due to squashing
system.cpu0.rename.serializingInsts               866                       # count of serializing insts renamed
system.cpu0.rename.tempSerializingInsts           992                       # count of temporary serializing insts renamed
system.cpu0.rename.skidInsts                  4339512                       # count of insts added to the skid buffer
system.cpu0.memDep0.insertedLoads             3122920                       # Number of loads inserted to the mem dependence unit.
system.cpu0.memDep0.insertedStores             148407                       # Number of stores inserted to the mem dependence unit.
system.cpu0.memDep0.conflictingLoads             7681                       # Number of conflicting loads.
system.cpu0.memDep0.conflictingStores            8341                       # Number of conflicting stores.
system.cpu0.iq.iqInstsAdded                  16201205                       # Number of instructions added to the IQ (excludes non-spec)
system.cpu0.iq.iqNonSpecInstsAdded               8420                       # Number of non-speculative instructions added to the IQ
system.cpu0.iq.iqInstsIssued                 11632595                       # Number of instructions issued
system.cpu0.iq.iqSquashedInstsIssued            14135                       # Number of squashed instructions issued
system.cpu0.iq.iqSquashedInstsExamined        9984623                       # Number of squashed instructions iterated over during squash; mainly for profiling
system.cpu0.iq.iqSquashedOperandsExamined     21204776                       # Number of squashed operands that are examined and possibly removed from graph
system.cpu0.iq.iqSquashedNonSpecRemoved          8420                       # Number of squashed non-spec instructions that were removed
system.cpu0.iq.issued_per_cycle::samples     30497446                       # Number of insts issued each cycle
system.cpu0.iq.issued_per_cycle::mean        0.381428                       # Number of insts issued each cycle
system.cpu0.iq.issued_per_cycle::stdev       1.096331                       # Number of insts issued each cycle
system.cpu0.iq.issued_per_cycle::underflows            0      0.00%      0.00% # Number of insts issued each cycle
system.cpu0.iq.issued_per_cycle::0           25825525     84.68%     84.68% # Number of insts issued each cycle
system.cpu0.iq.issued_per_cycle::1            1768672      5.80%     90.48% # Number of insts issued each cycle
system.cpu0.iq.issued_per_cycle::2             995547      3.26%     93.74% # Number of insts issued each cycle
system.cpu0.iq.issued_per_cycle::3             691922      2.27%     96.01% # Number of insts issued each cycle
system.cpu0.iq.issued_per_cycle::4             712056      2.33%     98.35% # Number of insts issued each cycle
system.cpu0.iq.issued_per_cycle::5             226254      0.74%     99.09% # Number of insts issued each cycle
system.cpu0.iq.issued_per_cycle::6             170258      0.56%     99.65% # Number of insts issued each cycle
system.cpu0.iq.issued_per_cycle::7              61675      0.20%     99.85% # Number of insts issued each cycle
system.cpu0.iq.issued_per_cycle::8              45537      0.15%    100.00% # Number of insts issued each cycle
system.cpu0.iq.issued_per_cycle::overflows            0      0.00%    100.00% # Number of insts issued each cycle
system.cpu0.iq.issued_per_cycle::min_value            0                       # Number of insts issued each cycle
system.cpu0.iq.issued_per_cycle::max_value            8                       # Number of insts issued each cycle
system.cpu0.iq.issued_per_cycle::total       30497446                       # Number of insts issued each cycle
system.cpu0.iq.fu_full::No_OpClass                  0      0.00%      0.00% # attempts to use FU when none available
system.cpu0.iq.fu_full::IntAlu                  23603     69.84%     69.84% # attempts to use FU when none available
system.cpu0.iq.fu_full::IntMult                     0      0.00%     69.84% # attempts to use FU when none available
system.cpu0.iq.fu_full::IntDiv                      0      0.00%     69.84% # attempts to use FU when none available
system.cpu0.iq.fu_full::FloatAdd                 2188      6.47%     76.32% # attempts to use FU when none available
system.cpu0.iq.fu_full::FloatCmp                    0      0.00%     76.32% # attempts to use FU when none available
system.cpu0.iq.fu_full::FloatCvt                    0      0.00%     76.32% # attempts to use FU when none available
system.cpu0.iq.fu_full::FloatMult                   0      0.00%     76.32% # attempts to use FU when none available
system.cpu0.iq.fu_full::FloatMultAcc                0      0.00%     76.32% # attempts to use FU when none available
system.cpu0.iq.fu_full::FloatDiv                    0      0.00%     76.32% # attempts to use FU when none available
system.cpu0.iq.fu_full::FloatMisc                   0      0.00%     76.32% # attempts to use FU when none available
system.cpu0.iq.fu_full::FloatSqrt                   0      0.00%     76.32% # attempts to use FU when none available
system.cpu0.iq.fu_full::SimdAdd                     0      0.00%     76.32% # attempts to use FU when none available
system.cpu0.iq.fu_full::SimdAddAcc                  0      0.00%     76.32% # attempts to use FU when none available
system.cpu0.iq.fu_full::SimdAlu                     0      0.00%     76.32% # attempts to use FU when none available
system.cpu0.iq.fu_full::SimdCmp                     0      0.00%     76.32% # attempts to use FU when none available
system.cpu0.iq.fu_full::SimdCvt                     0      0.00%     76.32% # attempts to use FU when none available
system.cpu0.iq.fu_full::SimdMisc                    0      0.00%     76.32% # attempts to use FU when none available
system.cpu0.iq.fu_full::SimdMult                    0      0.00%     76.32% # attempts to use FU when none available
system.cpu0.iq.fu_full::SimdMultAcc                 0      0.00%     76.32% # attempts to use FU when none available
system.cpu0.iq.fu_full::SimdShift                   0      0.00%     76.32% # attempts to use FU when none available
system.cpu0.iq.fu_full::SimdShiftAcc                0      0.00%     76.32% # attempts to use FU when none available
system.cpu0.iq.fu_full::SimdSqrt                    0      0.00%     76.32% # attempts to use FU when none available
system.cpu0.iq.fu_full::SimdFloatAdd                0      0.00%     76.32% # attempts to use FU when none available
system.cpu0.iq.fu_full::SimdFloatAlu                0      0.00%     76.32% # attempts to use FU when none available
system.cpu0.iq.fu_full::SimdFloatCmp                0      0.00%     76.32% # attempts to use FU when none available
system.cpu0.iq.fu_full::SimdFloatCvt                0      0.00%     76.32% # attempts to use FU when none available
system.cpu0.iq.fu_full::SimdFloatDiv                0      0.00%     76.32% # attempts to use FU when none available
system.cpu0.iq.fu_full::SimdFloatMisc               0      0.00%     76.32% # attempts to use FU when none available
system.cpu0.iq.fu_full::SimdFloatMult               0      0.00%     76.32% # attempts to use FU when none available
system.cpu0.iq.fu_full::SimdFloatMultAcc            0      0.00%     76.32% # attempts to use FU when none available
system.cpu0.iq.fu_full::SimdFloatSqrt               0      0.00%     76.32% # attempts to use FU when none available
system.cpu0.iq.fu_full::MemRead                  7118     21.06%     97.38% # attempts to use FU when none available
system.cpu0.iq.fu_full::MemWrite                  569      1.68%     99.06% # attempts to use FU when none available
system.cpu0.iq.fu_full::FloatMemRead              252      0.75%     99.81% # attempts to use FU when none available
system.cpu0.iq.fu_full::FloatMemWrite              65      0.19%    100.00% # attempts to use FU when none available
system.cpu0.iq.fu_full::IprAccess                   0      0.00%    100.00% # attempts to use FU when none available
system.cpu0.iq.fu_full::InstPrefetch                0      0.00%    100.00% # attempts to use FU when none available
system.cpu0.iq.FU_type_0::No_OpClass            38603      0.33%      0.33% # Type of FU issued
system.cpu0.iq.FU_type_0::IntAlu              9558746     82.17%     82.50% # Type of FU issued
system.cpu0.iq.FU_type_0::IntMult                1873      0.02%     82.52% # Type of FU issued
system.cpu0.iq.FU_type_0::IntDiv                18123      0.16%     82.68% # Type of FU issued
system.cpu0.iq.FU_type_0::FloatAdd              27374      0.24%     82.91% # Type of FU issued
system.cpu0.iq.FU_type_0::FloatCmp                  0      0.00%     82.91% # Type of FU issued
system.cpu0.iq.FU_type_0::FloatCvt                  0      0.00%     82.91% # Type of FU issued
system.cpu0.iq.FU_type_0::FloatMult                 0      0.00%     82.91% # Type of FU issued
system.cpu0.iq.FU_type_0::FloatMultAcc              0      0.00%     82.91% # Type of FU issued
system.cpu0.iq.FU_type_0::FloatDiv                  0      0.00%     82.91% # Type of FU issued
system.cpu0.iq.FU_type_0::FloatMisc                 0      0.00%     82.91% # Type of FU issued
system.cpu0.iq.FU_type_0::FloatSqrt                 0      0.00%     82.91% # Type of FU issued
system.cpu0.iq.FU_type_0::SimdAdd                   0      0.00%     82.91% # Type of FU issued
system.cpu0.iq.FU_type_0::SimdAddAcc                0      0.00%     82.91% # Type of FU issued
system.cpu0.iq.FU_type_0::SimdAlu                   0      0.00%     82.91% # Type of FU issued
system.cpu0.iq.FU_type_0::SimdCmp                   0      0.00%     82.91% # Type of FU issued
system.cpu0.iq.FU_type_0::SimdCvt                   0      0.00%     82.91% # Type of FU issued
system.cpu0.iq.FU_type_0::SimdMisc                  0      0.00%     82.91% # Type of FU issued
system.cpu0.iq.FU_type_0::SimdMult                  0      0.00%     82.91% # Type of FU issued
system.cpu0.iq.FU_type_0::SimdMultAcc               0      0.00%     82.91% # Type of FU issued
system.cpu0.iq.FU_type_0::SimdShift                 0      0.00%     82.91% # Type of FU issued
system.cpu0.iq.FU_type_0::SimdShiftAcc              0      0.00%     82.91% # Type of FU issued
system.cpu0.iq.FU_type_0::SimdSqrt                  0      0.00%     82.91% # Type of FU issued
system.cpu0.iq.FU_type_0::SimdFloatAdd              0      0.00%     82.91% # Type of FU issued
system.cpu0.iq.FU_type_0::SimdFloatAlu              0      0.00%     82.91% # Type of FU issued
system.cpu0.iq.FU_type_0::SimdFloatCmp              0      0.00%     82.91% # Type of FU issued
system.cpu0.iq.FU_type_0::SimdFloatCvt              0      0.00%     82.91% # Type of FU issued
system.cpu0.iq.FU_type_0::SimdFloatDiv              0      0.00%     82.91% # Type of FU issued
system.cpu0.iq.FU_type_0::SimdFloatMisc             0      0.00%     82.91% # Type of FU issued
system.cpu0.iq.FU_type_0::SimdFloatMult             0      0.00%     82.91% # Type of FU issued
system.cpu0.iq.FU_type_0::SimdFloatMultAcc            0      0.00%     82.91% # Type of FU issued
system.cpu0.iq.FU_type_0::SimdFloatSqrt             0      0.00%     82.91% # Type of FU issued
system.cpu0.iq.FU_type_0::MemRead             1873586     16.11%     99.02% # Type of FU issued
system.cpu0.iq.FU_type_0::MemWrite             109018      0.94%     99.95% # Type of FU issued
system.cpu0.iq.FU_type_0::FloatMemRead           5026      0.04%    100.00% # Type of FU issued
system.cpu0.iq.FU_type_0::FloatMemWrite           246      0.00%    100.00% # Type of FU issued
system.cpu0.iq.FU_type_0::IprAccess                 0      0.00%    100.00% # Type of FU issued
system.cpu0.iq.FU_type_0::InstPrefetch              0      0.00%    100.00% # Type of FU issued
system.cpu0.iq.FU_type_0::total              11632595                       # Type of FU issued
system.cpu0.iq.rate                          0.380963                       # Inst issue rate
system.cpu0.iq.fu_busy_cnt                      33795                       # FU busy when requested
system.cpu0.iq.fu_busy_rate                  0.002905                       # FU busy rate (busy events/executed inst)
system.cpu0.iq.int_inst_queue_reads          53742205                       # Number of integer instruction queue reads
system.cpu0.iq.int_inst_queue_writes         26128423                       # Number of integer instruction queue writes
system.cpu0.iq.int_inst_queue_wakeup_accesses     11142946                       # Number of integer instruction queue wakeup accesses
system.cpu0.iq.fp_inst_queue_reads              68361                       # Number of floating instruction queue reads
system.cpu0.iq.fp_inst_queue_writes             65832                       # Number of floating instruction queue writes
system.cpu0.iq.fp_inst_queue_wakeup_accesses        29758                       # Number of floating instruction queue wakeup accesses
system.cpu0.iq.vec_inst_queue_reads                 0                       # Number of vector instruction queue reads
system.cpu0.iq.vec_inst_queue_writes                0                       # Number of vector instruction queue writes
system.cpu0.iq.vec_inst_queue_wakeup_accesses            0                       # Number of vector instruction queue wakeup accesses
system.cpu0.iq.int_alu_accesses              11592606                       # Number of integer alu accesses
system.cpu0.iq.fp_alu_accesses                  35181                       # Number of floating point alu accesses
system.cpu0.iq.vec_alu_accesses                     0                       # Number of vector alu accesses
system.cpu0.iew.lsq.thread0.forwLoads            8087                       # Number of loads that had data forwarded from stores
system.cpu0.iew.lsq.thread0.invAddrLoads            0                       # Number of loads ignored due to an invalid address
system.cpu0.iew.lsq.thread0.squashedLoads      1925438                       # Number of loads squashed
system.cpu0.iew.lsq.thread0.ignoredResponses          263                       # Number of memory responses ignored because the instruction is squashed
system.cpu0.iew.lsq.thread0.memOrderViolation            8                       # Number of memory ordering violations
system.cpu0.iew.lsq.thread0.squashedStores        95857                       # Number of stores squashed
system.cpu0.iew.lsq.thread0.invAddrSwpfs            0                       # Number of software prefetches ignored due to an invalid address
system.cpu0.iew.lsq.thread0.blockedLoads            0                       # Number of blocked loads due to partial load-store forwarding
system.cpu0.iew.lsq.thread0.rescheduledLoads           61                       # Number of loads that were rescheduled
system.cpu0.iew.lsq.thread0.cacheBlocked         4933                       # Number of times an access to memory failed due to the cache being blocked
system.cpu0.iew.iewIdleCycles                       0                       # Number of cycles IEW is idle
system.cpu0.iew.iewSquashCycles                155445                       # Number of cycles IEW is squashing
system.cpu0.iew.iewBlockCycles               20804804                       # Number of cycles IEW is blocking
system.cpu0.iew.iewUnblockCycles               445358                       # Number of cycles IEW is unblocking
system.cpu0.iew.iewDispatchedInsts           16209625                       # Number of instructions dispatched to IQ
system.cpu0.iew.iewDispSquashedInsts             9091                       # Number of squashed instructions skipped by dispatch
system.cpu0.iew.iewDispLoadInsts              3122920                       # Number of dispatched load instructions
system.cpu0.iew.iewDispStoreInsts              148407                       # Number of dispatched store instructions
system.cpu0.iew.iewDispNonSpecInsts              3285                       # Number of dispatched non-speculative instructions
system.cpu0.iew.iewIQFullEvents                 34312                       # Number of times the IQ has become full, causing a stall
system.cpu0.iew.iewLSQFullEvents                54984                       # Number of times the LSQ has become full, causing a stall
system.cpu0.iew.memOrderViolationEvents             8                       # Number of memory order violations
system.cpu0.iew.predictedTakenIncorrect         84300                       # Number of branches that were predicted taken incorrectly
system.cpu0.iew.predictedNotTakenIncorrect        86536                       # Number of branches that were predicted not taken incorrectly
system.cpu0.iew.branchMispredicts              170836                       # Number of branch mispredicts detected at execute
system.cpu0.iew.iewExecutedInsts             11407222                       # Number of executed instructions
system.cpu0.iew.iewExecLoadInsts              1782223                       # Number of load instructions executed
system.cpu0.iew.iewExecSquashedInsts           225373                       # Number of squashed instructions skipped in execute
system.cpu0.iew.exec_swp                            0                       # number of swp insts executed
system.cpu0.iew.exec_nop                            0                       # number of nop insts executed
system.cpu0.iew.exec_refs                     1883412                       # number of memory reference insts executed
system.cpu0.iew.exec_branches                 1399167                       # Number of branches executed
system.cpu0.iew.exec_stores                    101189                       # Number of stores executed
system.cpu0.iew.exec_rate                    0.373582                       # Inst execution rate
system.cpu0.iew.wb_sent                      11209969                       # cumulative count of insts sent to commit
system.cpu0.iew.wb_count                     11172704                       # cumulative count of insts written-back
system.cpu0.iew.wb_producers                  8318469                       # num instructions producing a value
system.cpu0.iew.wb_consumers                 13153174                       # num instructions consuming a value
system.cpu0.iew.wb_rate                      0.365902                       # insts written-back per cycle
system.cpu0.iew.wb_fanout                    0.632431                       # average fanout of values written-back
system.cpu0.commit.commitSquashedInsts        9985699                       # The number of squashed insts skipped by commit
system.cpu0.commit.branchMispredicts           155440                       # The number of times a branch was mispredicted
system.cpu0.commit.committed_per_cycle::samples     29088152                       # Number of insts commited each cycle
system.cpu0.commit.committed_per_cycle::mean     0.214007                       # Number of insts commited each cycle
system.cpu0.commit.committed_per_cycle::stdev     0.835640                       # Number of insts commited each cycle
system.cpu0.commit.committed_per_cycle::underflows            0      0.00%      0.00% # Number of insts commited each cycle
system.cpu0.commit.committed_per_cycle::0     26388712     90.72%     90.72% # Number of insts commited each cycle
system.cpu0.commit.committed_per_cycle::1      1241630      4.27%     94.99% # Number of insts commited each cycle
system.cpu0.commit.committed_per_cycle::2       293540      1.01%     96.00% # Number of insts commited each cycle
system.cpu0.commit.committed_per_cycle::3       811784      2.79%     98.79% # Number of insts commited each cycle
system.cpu0.commit.committed_per_cycle::4       141689      0.49%     99.28% # Number of insts commited each cycle
system.cpu0.commit.committed_per_cycle::5        87226      0.30%     99.58% # Number of insts commited each cycle
system.cpu0.commit.committed_per_cycle::6        11560      0.04%     99.61% # Number of insts commited each cycle
system.cpu0.commit.committed_per_cycle::7         7341      0.03%     99.64% # Number of insts commited each cycle
system.cpu0.commit.committed_per_cycle::8       104670      0.36%    100.00% # Number of insts commited each cycle
system.cpu0.commit.committed_per_cycle::overflows            0      0.00%    100.00% # Number of insts commited each cycle
system.cpu0.commit.committed_per_cycle::min_value            0                       # Number of insts commited each cycle
system.cpu0.commit.committed_per_cycle::max_value            8                       # Number of insts commited each cycle
system.cpu0.commit.committed_per_cycle::total     29088152                       # Number of insts commited each cycle
system.cpu0.commit.committedInsts             3115605                       # Number of instructions committed
system.cpu0.commit.committedOps               6225055                       # Number of ops (including micro ops) committed
system.cpu0.commit.swp_count                        0                       # Number of s/w prefetches committed
system.cpu0.commit.refs                       1250038                       # Number of memory references committed
system.cpu0.commit.loads                      1197476                       # Number of loads committed
system.cpu0.commit.membars                          0                       # Number of memory barriers committed
system.cpu0.commit.branches                   1138488                       # Number of branches committed
system.cpu0.commit.vec_insts                        0                       # Number of committed Vector instructions.
system.cpu0.commit.fp_insts                     21190                       # Number of committed floating point instructions.
system.cpu0.commit.int_insts                  6203760                       # Number of committed integer instructions.
system.cpu0.commit.function_calls                9275                       # Number of function calls committed.
system.cpu0.commit.op_class_0::No_OpClass         6317      0.10%      0.10% # Class of committed instruction
system.cpu0.commit.op_class_0::IntAlu         4934994     79.28%     79.38% # Class of committed instruction
system.cpu0.commit.op_class_0::IntMult            371      0.01%     79.38% # Class of committed instruction
system.cpu0.commit.op_class_0::IntDiv           15251      0.24%     79.63% # Class of committed instruction
system.cpu0.commit.op_class_0::FloatAdd         18084      0.29%     79.92% # Class of committed instruction
system.cpu0.commit.op_class_0::FloatCmp             0      0.00%     79.92% # Class of committed instruction
system.cpu0.commit.op_class_0::FloatCvt             0      0.00%     79.92% # Class of committed instruction
system.cpu0.commit.op_class_0::FloatMult            0      0.00%     79.92% # Class of committed instruction
system.cpu0.commit.op_class_0::FloatMultAcc            0      0.00%     79.92% # Class of committed instruction
system.cpu0.commit.op_class_0::FloatDiv             0      0.00%     79.92% # Class of committed instruction
system.cpu0.commit.op_class_0::FloatMisc            0      0.00%     79.92% # Class of committed instruction
system.cpu0.commit.op_class_0::FloatSqrt            0      0.00%     79.92% # Class of committed instruction
system.cpu0.commit.op_class_0::SimdAdd              0      0.00%     79.92% # Class of committed instruction
system.cpu0.commit.op_class_0::SimdAddAcc            0      0.00%     79.92% # Class of committed instruction
system.cpu0.commit.op_class_0::SimdAlu              0      0.00%     79.92% # Class of committed instruction
system.cpu0.commit.op_class_0::SimdCmp              0      0.00%     79.92% # Class of committed instruction
system.cpu0.commit.op_class_0::SimdCvt              0      0.00%     79.92% # Class of committed instruction
system.cpu0.commit.op_class_0::SimdMisc             0      0.00%     79.92% # Class of committed instruction
system.cpu0.commit.op_class_0::SimdMult             0      0.00%     79.92% # Class of committed instruction
system.cpu0.commit.op_class_0::SimdMultAcc            0      0.00%     79.92% # Class of committed instruction
system.cpu0.commit.op_class_0::SimdShift            0      0.00%     79.92% # Class of committed instruction
system.cpu0.commit.op_class_0::SimdShiftAcc            0      0.00%     79.92% # Class of committed instruction
system.cpu0.commit.op_class_0::SimdSqrt             0      0.00%     79.92% # Class of committed instruction
system.cpu0.commit.op_class_0::SimdFloatAdd            0      0.00%     79.92% # Class of committed instruction
system.cpu0.commit.op_class_0::SimdFloatAlu            0      0.00%     79.92% # Class of committed instruction
system.cpu0.commit.op_class_0::SimdFloatCmp            0      0.00%     79.92% # Class of committed instruction
system.cpu0.commit.op_class_0::SimdFloatCvt            0      0.00%     79.92% # Class of committed instruction
system.cpu0.commit.op_class_0::SimdFloatDiv            0      0.00%     79.92% # Class of committed instruction
system.cpu0.commit.op_class_0::SimdFloatMisc            0      0.00%     79.92% # Class of committed instruction
system.cpu0.commit.op_class_0::SimdFloatMult            0      0.00%     79.92% # Class of committed instruction
system.cpu0.commit.op_class_0::SimdFloatMultAcc            0      0.00%     79.92% # Class of committed instruction
system.cpu0.commit.op_class_0::SimdFloatSqrt            0      0.00%     79.92% # Class of committed instruction
system.cpu0.commit.op_class_0::MemRead        1194370     19.19%     99.11% # Class of committed instruction
system.cpu0.commit.op_class_0::MemWrite         52562      0.84%     99.95% # Class of committed instruction
system.cpu0.commit.op_class_0::FloatMemRead         3106      0.05%    100.00% # Class of committed instruction
system.cpu0.commit.op_class_0::FloatMemWrite            0      0.00%    100.00% # Class of committed instruction
system.cpu0.commit.op_class_0::IprAccess            0      0.00%    100.00% # Class of committed instruction
system.cpu0.commit.op_class_0::InstPrefetch            0      0.00%    100.00% # Class of committed instruction
system.cpu0.commit.op_class_0::total          6225055                       # Class of committed instruction
system.cpu0.commit.bw_lim_events               104670                       # number cycles where commit BW limit reached
system.cpu0.rob.rob_reads                    45194236                       # The number of ROB reads
system.cpu0.rob.rob_writes                   33834242                       # The number of ROB writes
system.cpu0.timesIdled                            612                       # Number of times that the entire CPU went into an idle state and unscheduled itself
system.cpu0.idleCycles                          37242                       # Total number of cycles that the CPU has spent unscheduled due to idling
system.cpu0.committedInsts                    3115605                       # Number of Instructions Simulated
system.cpu0.committedOps                      6225055                       # Number of Ops (including micro ops) Simulated
system.cpu0.cpi                              9.800565                       # CPI: Cycles Per Instruction
system.cpu0.cpi_total                        9.800565                       # CPI: Total CPI of All Threads
system.cpu0.ipc                              0.102035                       # IPC: Instructions Per Cycle
system.cpu0.ipc_total                        0.102035                       # IPC: Total IPC of All Threads
system.cpu0.int_regfile_reads                11279497                       # number of integer regfile reads
system.cpu0.int_regfile_writes                9682874                       # number of integer regfile writes
system.cpu0.fp_regfile_reads                    53175                       # number of floating regfile reads
system.cpu0.fp_regfile_writes                   26561                       # number of floating regfile writes
system.cpu0.cc_regfile_reads                  7415856                       # number of cc regfile reads
system.cpu0.cc_regfile_writes                 3100954                       # number of cc regfile writes
system.cpu0.misc_regfile_reads                6104271                       # number of misc regfile reads
system.cpu0.dcache.tags.pwrStateResidencyTicks::UNDEFINED  15267344125                       # Cumulative time (in ticks) in various power states
system.cpu0.dcache.tags.replacements           641874                       # number of replacements
system.cpu0.dcache.tags.tagsinuse                 512                       # Cycle average of tags in use
system.cpu0.dcache.tags.total_refs             727348                       # Total number of references to valid blocks.
system.cpu0.dcache.tags.sampled_refs           641874                       # Sample count of references to valid blocks.
system.cpu0.dcache.tags.avg_refs             1.133163                       # Average number of references to valid blocks.
system.cpu0.dcache.tags.warmup_cycle                0                       # Cycle when the warmup percentage was hit.
system.cpu0.dcache.tags.occ_blocks::cpu0.data          512                       # Average occupied blocks per requestor
system.cpu0.dcache.tags.occ_percent::cpu0.data            1                       # Average percentage of cache occupancy
system.cpu0.dcache.tags.occ_percent::total            1                       # Average percentage of cache occupancy
system.cpu0.dcache.tags.occ_task_id_blocks::1024          512                       # Occupied blocks per task id
system.cpu0.dcache.tags.age_task_id_blocks_1024::0          197                       # Occupied blocks per task id
system.cpu0.dcache.tags.age_task_id_blocks_1024::1          315                       # Occupied blocks per task id
system.cpu0.dcache.tags.occ_task_id_percent::1024            1                       # Percentage of cache occupancy per task id
system.cpu0.dcache.tags.tag_accesses          7905366                       # Number of tag accesses
system.cpu0.dcache.tags.data_accesses         7905366                       # Number of data accesses
system.cpu0.dcache.pwrStateResidencyTicks::UNDEFINED  15267344125                       # Cumulative time (in ticks) in various power states
system.cpu0.dcache.ReadReq_hits::cpu0.data       675389                       # number of ReadReq hits
system.cpu0.dcache.ReadReq_hits::total         675389                       # number of ReadReq hits
system.cpu0.dcache.WriteReq_hits::cpu0.data        50206                       # number of WriteReq hits
system.cpu0.dcache.WriteReq_hits::total         50206                       # number of WriteReq hits
system.cpu0.dcache.demand_hits::cpu0.data       725595                       # number of demand (read+write) hits
system.cpu0.dcache.demand_hits::total          725595                       # number of demand (read+write) hits
system.cpu0.dcache.overall_hits::cpu0.data       725595                       # number of overall hits
system.cpu0.dcache.overall_hits::total         725595                       # number of overall hits
system.cpu0.dcache.ReadReq_misses::cpu0.data      1087922                       # number of ReadReq misses
system.cpu0.dcache.ReadReq_misses::total      1087922                       # number of ReadReq misses
system.cpu0.dcache.WriteReq_misses::cpu0.data         2356                       # number of WriteReq misses
system.cpu0.dcache.WriteReq_misses::total         2356                       # number of WriteReq misses
system.cpu0.dcache.demand_misses::cpu0.data      1090278                       # number of demand (read+write) misses
system.cpu0.dcache.demand_misses::total       1090278                       # number of demand (read+write) misses
system.cpu0.dcache.overall_misses::cpu0.data      1090278                       # number of overall misses
system.cpu0.dcache.overall_misses::total      1090278                       # number of overall misses
system.cpu0.dcache.ReadReq_miss_latency::cpu0.data  32592433500                       # number of ReadReq miss cycles
system.cpu0.dcache.ReadReq_miss_latency::total  32592433500                       # number of ReadReq miss cycles
system.cpu0.dcache.WriteReq_miss_latency::cpu0.data     85702496                       # number of WriteReq miss cycles
system.cpu0.dcache.WriteReq_miss_latency::total     85702496                       # number of WriteReq miss cycles
system.cpu0.dcache.demand_miss_latency::cpu0.data  32678135996                       # number of demand (read+write) miss cycles
system.cpu0.dcache.demand_miss_latency::total  32678135996                       # number of demand (read+write) miss cycles
system.cpu0.dcache.overall_miss_latency::cpu0.data  32678135996                       # number of overall miss cycles
system.cpu0.dcache.overall_miss_latency::total  32678135996                       # number of overall miss cycles
system.cpu0.dcache.ReadReq_accesses::cpu0.data      1763311                       # number of ReadReq accesses(hits+misses)
system.cpu0.dcache.ReadReq_accesses::total      1763311                       # number of ReadReq accesses(hits+misses)
system.cpu0.dcache.WriteReq_accesses::cpu0.data        52562                       # number of WriteReq accesses(hits+misses)
system.cpu0.dcache.WriteReq_accesses::total        52562                       # number of WriteReq accesses(hits+misses)
system.cpu0.dcache.demand_accesses::cpu0.data      1815873                       # number of demand (read+write) accesses
system.cpu0.dcache.demand_accesses::total      1815873                       # number of demand (read+write) accesses
system.cpu0.dcache.overall_accesses::cpu0.data      1815873                       # number of overall (read+write) accesses
system.cpu0.dcache.overall_accesses::total      1815873                       # number of overall (read+write) accesses
[...]
system.l2.demand_miss_rate::cpu0.data        0.181244                       # miss rate for demand accesses
system.l2.demand_miss_rate::total            0.181249                       # miss rate for demand accesses
system.l2.overall_miss_rate::cpu0.inst       0.318182                       # miss rate for overall accesses
system.l2.overall_miss_rate::cpu0.data       0.181244                       # miss rate for overall accesses
system.l2.overall_miss_rate::total           0.181249                       # miss rate for overall accesses
system.l2.ReadExReq_avg_miss_latency::cpu0.data 117971.717172                       # average ReadExReq miss latency
system.l2.ReadExReq_avg_miss_latency::total 117971.717172                       # average ReadExReq miss latency
system.l2.ReadCleanReq_avg_miss_latency::cpu0.inst 96928.571429                       # average ReadCleanReq miss latency
system.l2.ReadCleanReq_avg_miss_latency::total 96928.571429                       # average ReadCleanReq miss latency
system.l2.ReadSharedReq_avg_miss_latency::cpu0.data 97807.218515                       # average ReadSharedReq miss latency
system.l2.ReadSharedReq_avg_miss_latency::total 97807.218515                       # average ReadSharedReq miss latency
system.l2.demand_avg_miss_latency::cpu0.inst 96928.571429                       # average overall miss latency
system.l2.demand_avg_miss_latency::cpu0.data 97893.016779                       # average overall miss latency
system.l2.demand_avg_miss_latency::total 97892.958751                       # average overall miss latency
system.l2.overall_avg_miss_latency::cpu0.inst 96928.571429                       # average overall miss latency
system.l2.overall_avg_miss_latency::cpu0.data 97893.016779                       # average overall miss latency
system.l2.overall_avg_miss_latency::total 97892.958751                       # average overall miss latency
system.l2.blocked_cycles::no_mshrs                  0                       # number of cycles access was blocked
system.l2.blocked_cycles::no_targets                0                       # number of cycles access was blocked
system.l2.blocked::no_mshrs                         0                       # number of cycles access was blocked
system.l2.blocked::no_targets                       0                       # number of cycles access was blocked
system.l2.avg_blocked_cycles::no_mshrs            nan                       # average number of cycles each access was blocked
system.l2.avg_blocked_cycles::no_targets          nan                       # average number of cycles each access was blocked
system.l2.writebacks::writebacks                  509                       # number of writebacks
system.l2.writebacks::total                       509                       # number of writebacks
system.l2.ReadExReq_mshr_misses::cpu0.data          495                       # number of ReadExReq MSHR misses
system.l2.ReadExReq_mshr_misses::total            495                       # number of ReadExReq MSHR misses
system.l2.ReadCleanReq_mshr_misses::cpu0.inst            7                       # number of ReadCleanReq MSHR misses
system.l2.ReadCleanReq_mshr_misses::total            7                       # number of ReadCleanReq MSHR misses
system.l2.ReadSharedReq_mshr_misses::cpu0.data       115841                       # number of ReadSharedReq MSHR misses
system.l2.ReadSharedReq_mshr_misses::total       115841                       # number of ReadSharedReq MSHR misses
system.l2.demand_mshr_misses::cpu0.inst             7                       # number of demand (read+write) MSHR misses
system.l2.demand_mshr_misses::cpu0.data        116336                       # number of demand (read+write) MSHR misses
system.l2.demand_mshr_misses::total            116343                       # number of demand (read+write) MSHR misses
system.l2.overall_mshr_misses::cpu0.inst            7                       # number of overall MSHR misses
system.l2.overall_mshr_misses::cpu0.data       116336                       # number of overall MSHR misses
system.l2.overall_mshr_misses::total           116343                       # number of overall MSHR misses
system.l2.ReadExReq_mshr_miss_latency::cpu0.data     53446000                       # number of ReadExReq MSHR miss cycles
system.l2.ReadExReq_mshr_miss_latency::total     53446000                       # number of ReadExReq MSHR miss cycles
system.l2.ReadCleanReq_mshr_miss_latency::cpu0.inst       608500                       # number of ReadCleanReq MSHR miss cycles
system.l2.ReadCleanReq_mshr_miss_latency::total       608500                       # number of ReadCleanReq MSHR miss cycles
system.l2.ReadSharedReq_mshr_miss_latency::cpu0.data  10171676000                       # number of ReadSharedReq MSHR miss cycles
system.l2.ReadSharedReq_mshr_miss_latency::total  10171676000                       # number of ReadSharedReq MSHR miss cycles
system.l2.demand_mshr_miss_latency::cpu0.inst       608500                       # number of demand (read+write) MSHR miss cycles
system.l2.demand_mshr_miss_latency::cpu0.data  10225122000                       # number of demand (read+write) MSHR miss cycles
system.l2.demand_mshr_miss_latency::total  10225730500                       # number of demand (read+write) MSHR miss cycles
system.l2.overall_mshr_miss_latency::cpu0.inst       608500                       # number of overall MSHR miss cycles
system.l2.overall_mshr_miss_latency::cpu0.data  10225122000                       # number of overall MSHR miss cycles
system.l2.overall_mshr_miss_latency::total  10225730500                       # number of overall MSHR miss cycles
system.l2.ReadExReq_mshr_miss_rate::cpu0.data     0.211629                       # mshr miss rate for ReadExReq accesses
system.l2.ReadExReq_mshr_miss_rate::total     0.211629                       # mshr miss rate for ReadExReq accesses
system.l2.ReadCleanReq_mshr_miss_rate::cpu0.inst     0.318182                       # mshr miss rate for ReadCleanReq accesses
system.l2.ReadCleanReq_mshr_miss_rate::total     0.318182                       # mshr miss rate for ReadCleanReq accesses
system.l2.ReadSharedReq_mshr_miss_rate::cpu0.data     0.181133                       # mshr miss rate for ReadSharedReq accesses
system.l2.ReadSharedReq_mshr_miss_rate::total     0.181133                       # mshr miss rate for ReadSharedReq accesses
system.l2.demand_mshr_miss_rate::cpu0.inst     0.318182                       # mshr miss rate for demand accesses
system.l2.demand_mshr_miss_rate::cpu0.data     0.181244                       # mshr miss rate for demand accesses
system.l2.demand_mshr_miss_rate::total       0.181249                       # mshr miss rate for demand accesses
system.l2.overall_mshr_miss_rate::cpu0.inst     0.318182                       # mshr miss rate for overall accesses
system.l2.overall_mshr_miss_rate::cpu0.data     0.181244                       # mshr miss rate for overall accesses
system.l2.overall_mshr_miss_rate::total      0.181249                       # mshr miss rate for overall accesses
system.l2.ReadExReq_avg_mshr_miss_latency::cpu0.data 107971.717172                       # average ReadExReq mshr miss latency
system.l2.ReadExReq_avg_mshr_miss_latency::total 107971.717172                       # average ReadExReq mshr miss latency
system.l2.ReadCleanReq_avg_mshr_miss_latency::cpu0.inst 86928.571429                       # average ReadCleanReq mshr miss latency
system.l2.ReadCleanReq_avg_mshr_miss_latency::total 86928.571429                       # average ReadCleanReq mshr miss latency
system.l2.ReadSharedReq_avg_mshr_miss_latency::cpu0.data 87807.218515                       # average ReadSharedReq mshr miss latency
system.l2.ReadSharedReq_avg_mshr_miss_latency::total 87807.218515                       # average ReadSharedReq mshr miss latency
system.l2.demand_avg_mshr_miss_latency::cpu0.inst 86928.571429                       # average overall mshr miss latency
system.l2.demand_avg_mshr_miss_latency::cpu0.data 87893.016779                       # average overall mshr miss latency
system.l2.demand_avg_mshr_miss_latency::total 87892.958751                       # average overall mshr miss latency
system.l2.overall_avg_mshr_miss_latency::cpu0.inst 86928.571429                       # average overall mshr miss latency
system.l2.overall_avg_mshr_miss_latency::cpu0.data 87893.016779                       # average overall mshr miss latency
system.l2.overall_avg_mshr_miss_latency::total 87892.958751                       # average overall mshr miss latency
system.membus.snoop_filter.tot_requests        232684                       # Total number of requests made to the snoop filter.
system.membus.snoop_filter.hit_single_requests       116343                       # Number of requests hitting in the snoop filter with a single holder of the requested data.
system.membus.snoop_filter.hit_multi_requests            0                       # Number of requests hitting in the snoop filter with multiple (>1) holders of the requested data.
system.membus.snoop_filter.tot_snoops               0                       # Total number of snoops made to the snoop filter.
system.membus.snoop_filter.hit_single_snoops            0                       # Number of snoops hitting in the snoop filter with a single holder of the requested data.
system.membus.snoop_filter.hit_multi_snoops            0                       # Number of snoops hitting in the snoop filter with multiple (>1) holders of the requested data.
system.membus.pwrStateResidencyTicks::UNDEFINED  15267344125                       # Cumulative time (in ticks) in various power states
system.membus.trans_dist::ReadResp             115848                       # Transaction distribution
system.membus.trans_dist::WritebackDirty          509                       # Transaction distribution
system.membus.trans_dist::CleanEvict           115832                       # Transaction distribution
system.membus.trans_dist::ReadExReq               495                       # Transaction distribution
system.membus.trans_dist::ReadExResp              495                       # Transaction distribution
system.membus.trans_dist::ReadSharedReq        115848                       # Transaction distribution
system.membus.pkt_count_system.l2.mem_side::system.mem_ctrls.port       349027                       # Packet count per connected master and slave (bytes)
system.membus.pkt_count_system.l2.mem_side::total       349027                       # Packet count per connected master and slave (bytes)
system.membus.pkt_count::total                 349027                       # Packet count per connected master and slave (bytes)
system.membus.pkt_size_system.l2.mem_side::system.mem_ctrls.port      7478528                       # Cumulative packet size per connected master and slave (bytes)
system.membus.pkt_size_system.l2.mem_side::total      7478528                       # Cumulative packet size per connected master and slave (bytes)
system.membus.pkt_size::total                 7478528                       # Cumulative packet size per connected master and slave (bytes)
system.membus.snoops                                0                       # Total snoops (count)
system.membus.snoopTraffic                          0                       # Total snoop traffic (bytes)
system.membus.snoop_fanout::samples            116343                       # Request fanout histogram
system.membus.snoop_fanout::mean                    0                       # Request fanout histogram
system.membus.snoop_fanout::stdev                   0                       # Request fanout histogram
system.membus.snoop_fanout::underflows              0      0.00%      0.00% # Request fanout histogram
system.membus.snoop_fanout::0                  116343    100.00%    100.00% # Request fanout histogram
system.membus.snoop_fanout::1                       0      0.00%    100.00% # Request fanout histogram
system.membus.snoop_fanout::overflows               0      0.00%    100.00% # Request fanout histogram
system.membus.snoop_fanout::min_value               0                       # Request fanout histogram
system.membus.snoop_fanout::max_value               0                       # Request fanout histogram
system.membus.snoop_fanout::total              116343                       # Request fanout histogram
system.membus.reqLayer12.occupancy          269673500                       # Layer occupancy (ticks)
system.membus.reqLayer12.utilization              1.8                       # Layer utilization (%)
system.membus.respLayer1.occupancy          638509750                       # Layer occupancy (ticks)
system.membus.respLayer1.utilization              4.2                       # Layer utilization (%)
system.tol2bus.snoop_filter.tot_requests      1283792                       # Total number of requests made to the snoop filter.
system.tol2bus.snoop_filter.hit_single_requests       641895                       # Number of requests hitting in the snoop filter with a single holder of the requested data.
system.tol2bus.snoop_filter.hit_multi_requests         1253                       # Number of requests hitting in the snoop filter with multiple (>1) holders of the requested data.
system.tol2bus.snoop_filter.tot_snoops             11                       # Total number of snoops made to the snoop filter.
system.tol2bus.snoop_filter.hit_single_snoops           11                       # Number of snoops hitting in the snoop filter with a single holder of the requested data.
system.tol2bus.snoop_filter.hit_multi_snoops            0                       # Number of snoops hitting in the snoop filter with multiple (>1) holders of the requested data.
system.tol2bus.pwrStateResidencyTicks::UNDEFINED  15267344125                       # Cumulative time (in ticks) in various power states
system.tol2bus.trans_dist::ReadResp            639557                       # Transaction distribution
system.tol2bus.trans_dist::WritebackDirty        12134                       # Transaction distribution
system.tol2bus.trans_dist::WritebackClean           22                       # Transaction distribution
system.tol2bus.trans_dist::CleanEvict          746092                       # Transaction distribution
system.tol2bus.trans_dist::ReadExReq             2339                       # Transaction distribution
system.tol2bus.trans_dist::ReadExResp            2339                       # Transaction distribution
system.tol2bus.trans_dist::ReadCleanReq            22                       # Transaction distribution
system.tol2bus.trans_dist::ReadSharedReq       639535                       # Transaction distribution
system.tol2bus.pkt_count_system.cpu0.icache.mem_side::system.l2.cpu_side           66                       # Packet count per connected master and slave (bytes)
system.tol2bus.pkt_count_system.cpu0.dcache.mem_side::system.l2.cpu_side      1925622                       # Packet count per connected master and slave (bytes)
system.tol2bus.pkt_count::total               1925688                       # Packet count per connected master and slave (bytes)
system.tol2bus.pkt_size_system.cpu0.icache.mem_side::system.l2.cpu_side         2816                       # Cumulative packet size per connected master and slave (bytes)
system.tol2bus.pkt_size_system.cpu0.dcache.mem_side::system.l2.cpu_side     41823936                       # Cumulative packet size per connected master and slave (bytes)
system.tol2bus.pkt_size::total               41826752                       # Cumulative packet size per connected master and slave (bytes)
system.tol2bus.snoops                          116352                       # Total snoops (count)
system.tol2bus.snoopTraffic                     32576                       # Total snoop traffic (bytes)
system.tol2bus.snoop_fanout::samples           758248                       # Request fanout histogram
system.tol2bus.snoop_fanout::mean            0.001666                       # Request fanout histogram
system.tol2bus.snoop_fanout::stdev           0.040779                       # Request fanout histogram
system.tol2bus.snoop_fanout::underflows             0      0.00%      0.00% # Request fanout histogram
system.tol2bus.snoop_fanout::0                 756985     99.83%     99.83% # Request fanout histogram
system.tol2bus.snoop_fanout::1                   1263      0.17%    100.00% # Request fanout histogram
system.tol2bus.snoop_fanout::2                      0      0.00%    100.00% # Request fanout histogram
system.tol2bus.snoop_fanout::3                      0      0.00%    100.00% # Request fanout histogram
system.tol2bus.snoop_fanout::4                      0      0.00%    100.00% # Request fanout histogram
system.tol2bus.snoop_fanout::5                      0      0.00%    100.00% # Request fanout histogram
system.tol2bus.snoop_fanout::6                      0      0.00%    100.00% # Request fanout histogram
system.tol2bus.snoop_fanout::7                      0      0.00%    100.00% # Request fanout histogram
system.tol2bus.snoop_fanout::8                      0      0.00%    100.00% # Request fanout histogram
system.tol2bus.snoop_fanout::9                      0      0.00%    100.00% # Request fanout histogram
system.tol2bus.snoop_fanout::10                     0      0.00%    100.00% # Request fanout histogram
system.tol2bus.snoop_fanout::11                     0      0.00%    100.00% # Request fanout histogram
system.tol2bus.snoop_fanout::12                     0      0.00%    100.00% # Request fanout histogram
system.tol2bus.snoop_fanout::13                     0      0.00%    100.00% # Request fanout histogram
system.tol2bus.snoop_fanout::14                     0      0.00%    100.00% # Request fanout histogram
system.tol2bus.snoop_fanout::15                     0      0.00%    100.00% # Request fanout histogram
system.tol2bus.snoop_fanout::16                     0      0.00%    100.00% # Request fanout histogram
system.tol2bus.snoop_fanout::17                     0      0.00%    100.00% # Request fanout histogram
system.tol2bus.snoop_fanout::18                     0      0.00%    100.00% # Request fanout histogram
system.tol2bus.snoop_fanout::19                     0      0.00%    100.00% # Request fanout histogram
system.tol2bus.snoop_fanout::20                     0      0.00%    100.00% # Request fanout histogram
system.tol2bus.snoop_fanout::21                     0      0.00%    100.00% # Request fanout histogram
system.tol2bus.snoop_fanout::22                     0      0.00%    100.00% # Request fanout histogram
system.tol2bus.snoop_fanout::23                     0      0.00%    100.00% # Request fanout histogram
system.tol2bus.snoop_fanout::24                     0      0.00%    100.00% # Request fanout histogram
system.tol2bus.snoop_fanout::overflows              0      0.00%    100.00% # Request fanout histogram
system.tol2bus.snoop_fanout::min_value              0                       # Request fanout histogram
system.tol2bus.snoop_fanout::max_value              1                       # Request fanout histogram
system.tol2bus.snoop_fanout::total             758248                       # Request fanout histogram
system.tol2bus.reqLayer0.occupancy          653543000                       # Layer occupancy (ticks)
system.tol2bus.reqLayer0.utilization              4.3                       # Layer utilization (%)
system.tol2bus.respLayer0.occupancy             33000                       # Layer occupancy (ticks)
system.tol2bus.respLayer0.utilization             0.0                       # Layer utilization (%)
system.tol2bus.respLayer1.occupancy         962811000                       # Layer occupancy (ticks)
system.tol2bus.respLayer1.utilization             6.3                       # Layer utilization (%)

---------- End Simulation Statistics   ----------
