
---------- Begin Simulation Statistics ----------
sim_seconds                                  0.015267                       # Number of seconds simulated
sim_ticks                                 15267344125                       # Number of ticks simulated
final_tick                               290079538375                       # Number of ticks from beginning of simulation (restored from checkpoints and never reset)
sim_freq                                 1000000000000                       # Frequency of simulated ticks
host_inst_rate                                2391826                       # Simulator instruction rate (inst/s)
host_op_rate                                  4511186                       # Simulator op (including micro ops) rate (op/s)
host_tick_rate                               57015753                       # Simulator tick rate (ticks/s)
host_mem_usage                                3396616                       # Number of bytes of host memory used
host_seconds                                   267.77                       # Real time elapsed on the host
sim_insts                                   640469056                       # Number of instructions simulated
sim_ops                                    1207978894                       # Number of ops (including micro ops) simulated
system.voltage_domain.voltage                       1                       # Voltage in Volts
system.clk_domain.clock                          1000                       # Clock period in ticks
system.mem_ctrls.pwrStateResidencyTicks::UNDEFINED  15267344125                       # Cumulative time (in ticks) in various power states
system.mem_ctrls.bytes_read::cpu0.data         206656                       # Number of bytes read from this memory
system.mem_ctrls.bytes_read::total             206656                       # Number of bytes read from this memory
system.mem_ctrls.num_reads::cpu0.data            3229                       # Number of read requests responded to by this memory
system.mem_ctrls.num_reads::total                3229                       # Number of read requests responded to by this memory
system.mem_ctrls.bw_read::cpu0.data          13535819                       # Total read bandwidth from this memory (bytes/s)
system.mem_ctrls.bw_read::total              13535819                       # Total read bandwidth from this memory (bytes/s)
system.mem_ctrls.bw_total::cpu0.data         13535819                       # Total bandwidth to/from this memory (bytes/s)
system.mem_ctrls.bw_total::total             13535819                       # Total bandwidth to/from this memory (bytes/s)
system.mem_ctrls.readReqs                        3229                       # Number of read requests accepted
system.mem_ctrls.writeReqs                          0                       # Number of write requests accepted
system.mem_ctrls.readBursts                      3229                       # Number of DRAM read bursts, including those serviced by the write queue
system.mem_ctrls.writeBursts                        0                       # Number of DRAM write bursts, including those merged in the write queue
system.mem_ctrls.bytesReadDRAM                 206656                       # Total number of bytes read from DRAM
system.mem_ctrls.bytesReadWrQ                       0                       # Total number of bytes read from write queue
system.mem_ctrls.bytesWritten                       0                       # Total number of bytes written to DRAM
system.mem_ctrls.bytesReadSys                  206656                       # Total read bytes from the system interface side
system.mem_ctrls.bytesWrittenSys                    0                       # Total written bytes from the system interface side
system.mem_ctrls.servicedByWrQ                      0                       # Number of DRAM read bursts serviced by the write queue
system.mem_ctrls.mergedWrBursts                     0                       # Number of DRAM write bursts merged with an existing one
system.mem_ctrls.neitherReadNorWriteReqs            0                       # Number of requests that are neither read nor write
system.mem_ctrls.perBankRdBursts::0               128                       # Per bank write bursts
system.mem_ctrls.perBankRdBursts::1               128                       # Per bank write bursts
system.mem_ctrls.perBankRdBursts::2               128                       # Per bank write bursts
system.mem_ctrls.perBankRdBursts::3               128                       # Per bank write bursts
system.mem_ctrls.perBankRdBursts::4               205                       # Per bank write bursts
system.mem_ctrls.perBankRdBursts::5               256                       # Per bank write bursts
system.mem_ctrls.perBankRdBursts::6               256                       # Per bank write bursts
system.mem_ctrls.perBankRdBursts::7               256                       # Per bank write bursts
system.mem_ctrls.perBankRdBursts::8               208                       # Per bank write bursts
system.mem_ctrls.perBankRdBursts::9               247                       # Per bank write bursts
system.mem_ctrls.perBankRdBursts::10              318                       # Per bank write bursts
system.mem_ctrls.perBankRdBursts::11              338                       # Per bank write bursts
system.mem_ctrls.perBankRdBursts::12              249                       # Per bank write bursts
system.mem_ctrls.perBankRdBursts::13              128                       # Per bank write bursts
system.mem_ctrls.perBankRdBursts::14              128                       # Per bank write bursts
system.mem_ctrls.perBankRdBursts::15              128                       # Per bank write bursts
system.mem_ctrls.perBankWrBursts::0                 0                       # Per bank write bursts
system.mem_ctrls.perBankWrBursts::1                 0                       # Per bank write bursts
system.mem_ctrls.perBankWrBursts::2                 0                       # Per bank write bursts
system.mem_ctrls.perBankWrBursts::3                 0                       # Per bank write bursts
system.mem_ctrls.perBankWrBursts::4                 0                       # Per bank write bursts
system.mem_ctrls.perBankWrBursts::5                 0                       # Per bank write bursts
system.mem_ctrls.perBankWrBursts::6                 0                       # Per bank write bursts
system.mem_ctrls.perBankWrBursts::7                 0                       # Per bank write bursts
system.mem_ctrls.perBankWrBursts::8                 0                       # Per bank write bursts
system.mem_ctrls.perBankWrBursts::9                 0                       # Per bank write bursts
system.mem_ctrls.perBankWrBursts::10                0                       # Per bank write bursts
system.mem_ctrls.perBankWrBursts::11                0                       # Per bank write bursts
system.mem_ctrls.perBankWrBursts::12                0                       # Per bank write bursts
system.mem_ctrls.perBankWrBursts::13                0                       # Per bank write bursts
system.mem_ctrls.perBankWrBursts::14                0                       # Per bank write bursts
system.mem_ctrls.perBankWrBursts::15                0                       # Per bank write bursts
system.mem_ctrls.numRdRetry                         0                       # Number of times read queue was full causing retry
system.mem_ctrls.numWrRetry                         0                       # Number of times write queue was full causing retry
system.mem_ctrls.totGap                   15269901000                       # Total gap between requests
system.mem_ctrls.readPktSize::0                     0                       # Read request sizes (log2)
system.mem_ctrls.readPktSize::1                     0                       # Read request sizes (log2)
system.mem_ctrls.readPktSize::2                     0                       # Read request sizes (log2)
system.mem_ctrls.readPktSize::3                     0                       # Read request sizes (log2)
system.mem_ctrls.readPktSize::4                     0                       # Read request sizes (log2)
system.mem_ctrls.readPktSize::5                     0                       # Read request sizes (log2)
system.mem_ctrls.readPktSize::6                  3229                       # Read request sizes (log2)
system.mem_ctrls.writePktSize::0                    0                       # Write request sizes (log2)
system.mem_ctrls.writePktSize::1                    0                       # Write request sizes (log2)
system.mem_ctrls.writePktSize::2                    0                       # Write request sizes (log2)
system.mem_ctrls.writePktSize::3                    0                       # Write request sizes (log2)
system.mem_ctrls.writePktSize::4                    0                       # Write request sizes (log2)
system.mem_ctrls.writePktSize::5                    0                       # Write request sizes (log2)
system.mem_ctrls.writePktSize::6                    0                       # Write request sizes (log2)
system.mem_ctrls.rdQLenPdf::0                    3228                       # What read queue length does an incoming req see
system.mem_ctrls.rdQLenPdf::1                       1                       # What read queue length does an incoming req see
system.mem_ctrls.rdQLenPdf::2                       0                       # What read queue length does an incoming req see
system.mem_ctrls.rdQLenPdf::3                       0                       # What read queue length does an incoming req see
system.mem_ctrls.rdQLenPdf::4                       0                       # What read queue length does an incoming req see
system.mem_ctrls.rdQLenPdf::5                       0                       # What read queue length does an incoming req see
system.mem_ctrls.rdQLenPdf::6                       0                       # What read queue length does an incoming req see
system.mem_ctrls.rdQLenPdf::7                       0                       # What read queue length does an incoming req see
system.mem_ctrls.rdQLenPdf::8                       0                       # What read queue length does an incoming req see
system.mem_ctrls.rdQLenPdf::9                       0                       # What read queue length does an incoming req see
system.mem_ctrls.rdQLenPdf::10                      0                       # What read queue length does an incoming req see
system.mem_ctrls.rdQLenPdf::11                      0                       # What read queue length does an incoming req see
system.mem_ctrls.rdQLenPdf::12                      0                       # What read queue length does an incoming req see
system.mem_ctrls.rdQLenPdf::13                      0                       # What read queue length does an incoming req see
system.mem_ctrls.rdQLenPdf::14                      0                       # What read queue length does an incoming req see
system.mem_ctrls.rdQLenPdf::15                      0                       # What read queue length does an incoming req see
system.mem_ctrls.rdQLenPdf::16                      0                       # What read queue length does an incoming req see
system.mem_ctrls.rdQLenPdf::17                      0                       # What read queue length does an incoming req see
system.mem_ctrls.rdQLenPdf::18                      0                       # What read queue length does an incoming req see
system.mem_ctrls.rdQLenPdf::19                      0                       # What read queue length does an incoming req see
system.mem_ctrls.rdQLenPdf::20                      0                       # What read queue length does an incoming req see
system.mem_ctrls.rdQLenPdf::21                      0                       # What read queue length does an incoming req see
system.mem_ctrls.rdQLenPdf::22                      0                       # What read queue length does an incoming req see
system.mem_ctrls.rdQLenPdf::23                      0                       # What read queue length does an incoming req see
system.mem_ctrls.rdQLenPdf::24                      0                       # What read queue length does an incoming req see
system.mem_ctrls.rdQLenPdf::25                      0                       # What read queue length does an incoming req see
system.mem_ctrls.rdQLenPdf::26                      0                       # What read queue length does an incoming req see
system.mem_ctrls.rdQLenPdf::27                      0                       # What read queue length does an incoming req see
system.mem_ctrls.rdQLenPdf::28                      0                       # What read queue length does an incoming req see
system.mem_ctrls.rdQLenPdf::29                      0                       # What read queue length does an incoming req see
system.mem_ctrls.rdQLenPdf::30                      0                       # What read queue length does an incoming req see
system.mem_ctrls.rdQLenPdf::31                      0                       # What read queue length does an incoming req see
system.mem_ctrls.wrQLenPdf::0                       0                       # What write queue length does an incoming req see
system.mem_ctrls.wrQLenPdf::1                       0                       # What write queue length does an incoming req see
system.mem_ctrls.wrQLenPdf::2                       0                       # What write queue length does an incoming req see
system.mem_ctrls.wrQLenPdf::3                       0                       # What write queue length does an incoming req see
system.mem_ctrls.wrQLenPdf::4                       0                       # What write queue length does an incoming req see
system.mem_ctrls.wrQLenPdf::5                       0                       # What write queue length does an incoming req see
system.mem_ctrls.wrQLenPdf::6                       0                       # What write queue length does an incoming req see
system.mem_ctrls.wrQLenPdf::7                       0                       # What write queue length does an incoming req see
system.mem_ctrls.wrQLenPdf::8                       0                       # What write queue length does an incoming req see
system.mem_ctrls.wrQLenPdf::9                       0                       # What write queue length does an incoming req see
system.mem_ctrls.wrQLenPdf::10                      0                       # What write queue length does an incoming req see
system.mem_ctrls.wrQLenPdf::11                      0                       # What write queue length does an incoming req see
system.mem_ctrls.wrQLenPdf::12                      0                       # What write queue length does an incoming req see
system.mem_ctrls.wrQLenPdf::13                      0                       # What write queue length does an incoming req see
system.mem_ctrls.wrQLenPdf::14                      0                       # What write queue length does an incoming req see
system.mem_ctrls.wrQLenPdf::15                      0                       # What write queue length does an incoming req see
system.mem_ctrls.wrQLenPdf::16                      0                       # What write queue length does an incoming req see
system.mem_ctrls.wrQLenPdf::17                      0                       # What write queue length does an incoming req see
system.mem_ctrls.wrQLenPdf::18                      0                       # What write queue length does an incoming req see
system.mem_ctrls.wrQLenPdf::19                      0                       # What write queue length does an incoming req see
system.mem_ctrls.wrQLenPdf::20                      0                       # What write queue length does an incoming req see
system.mem_ctrls.wrQLenPdf::21                      0                       # What write queue length does an incoming req see
system.mem_ctrls.wrQLenPdf::22                      0                       # What write queue length does an incoming req see
system.mem_ctrls.wrQLenPdf::23                      0                       # What write queue length does an incoming req see
system.mem_ctrls.wrQLenPdf::24                      0                       # What write queue length does an incoming req see
system.mem_ctrls.wrQLenPdf::25                      0                       # What write queue length does an incoming req see
system.mem_ctrls.wrQLenPdf::26                      0                       # What write queue length does an incoming req see
system.mem_ctrls.wrQLenPdf::27                      0                       # What write queue length does an incoming req see
system.mem_ctrls.wrQLenPdf::28                      0                       # What write queue length does an incoming req see
system.mem_ctrls.wrQLenPdf::29                      0                       # What write queue length does an incoming req see
system.mem_ctrls.wrQLenPdf::30                      0                       # What write queue length does an incoming req see
system.mem_ctrls.wrQLenPdf::31                      0                       # What write queue length does an incoming req see
system.mem_ctrls.wrQLenPdf::32                      0                       # What write queue length does an incoming req see
system.mem_ctrls.wrQLenPdf::33                      0                       # What write queue length does an incoming req see
system.mem_ctrls.wrQLenPdf::34                      0                       # What write queue length does an incoming req see
system.mem_ctrls.wrQLenPdf::35                      0                       # What write queue length does an incoming req see
system.mem_ctrls.wrQLenPdf::36                      0                       # What write queue length does an incoming req see
system.mem_ctrls.wrQLenPdf::37                      0                       # What write queue length does an incoming req see
system.mem_ctrls.wrQLenPdf::38                      0                       # What write queue length does an incoming req see
system.mem_ctrls.wrQLenPdf::39                      0                       # What write queue length does an incoming req see
system.mem_ctrls.wrQLenPdf::40                      0                       # What write queue length does an incoming req see
system.mem_ctrls.wrQLenPdf::41                      0                       # What write queue length does an incoming req see
system.mem_ctrls.wrQLenPdf::42                      0                       # What write queue length does an incoming req see
system.mem_ctrls.wrQLenPdf::43                      0                       # What write queue length does an incoming req see
system.mem_ctrls.wrQLenPdf::44                      0                       # What write queue length does an incoming req see
system.mem_ctrls.wrQLenPdf::45                      0                       # What write queue length does an incoming req see
system.mem_ctrls.wrQLenPdf::46                      0                       # What write queue length does an incoming req see
system.mem_ctrls.wrQLenPdf::47                      0                       # What write queue length does an incoming req see
system.mem_ctrls.wrQLenPdf::48                      0                       # What write queue length does an incoming req see
system.mem_ctrls.wrQLenPdf::49                      0                       # What write queue length does an incoming req see
system.mem_ctrls.wrQLenPdf::50                      0                       # What write queue length does an incoming req see
system.mem_ctrls.wrQLenPdf::51                      0                       # What write queue length does an incoming req see
system.mem_ctrls.wrQLenPdf::52                      0                       # What write queue length does an incoming req see
system.mem_ctrls.wrQLenPdf::53                      0                       # What write queue length does an incoming req see
system.mem_ctrls.wrQLenPdf::54                      0                       # What write queue length does an incoming req see
system.mem_ctrls.wrQLenPdf::55                      0                       # What write queue length does an incoming req see
system.mem_ctrls.wrQLenPdf::56                      0                       # What write queue length does an incoming req see
system.mem_ctrls.wrQLenPdf::57                      0                       # What write queue length does an incoming req see
system.mem_ctrls.wrQLenPdf::58                      0                       # What write queue length does an incoming req see
system.mem_ctrls.wrQLenPdf::59                      0                       # What write queue length does an incoming req see
system.mem_ctrls.wrQLenPdf::60                      0                       # What write queue length does an incoming req see
system.mem_ctrls.wrQLenPdf::61                      0                       # What write queue length does an incoming req see
system.mem_ctrls.wrQLenPdf::62                      0                       # What write queue length does an incoming req see
system.mem_ctrls.wrQLenPdf::63                      0                       # What write queue length does an incoming req see
system.mem_ctrls.bytesPerActivate::samples         3181                       # Bytes accessed per row activation
system.mem_ctrls.bytesPerActivate::mean     64.985854                       # Bytes accessed per row activation
system.mem_ctrls.bytesPerActivate::gmean    64.687003                       # Bytes accessed per row activation
system.mem_ctrls.bytesPerActivate::stdev     7.883036                       # Bytes accessed per row activation
system.mem_ctrls.bytesPerActivate::64-79         3132     98.46%     98.46% # Bytes accessed per row activation
system.mem_ctrls.bytesPerActivate::128-143           49      1.54%    100.00% # Bytes accessed per row activation
system.mem_ctrls.bytesPerActivate::total         3181                       # Bytes accessed per row activation
system.mem_ctrls.totQLat                    450099750                       # Total ticks spent queuing
system.mem_ctrls.totMemAccLat               510643500                       # Total ticks spent from burst creation until serviced by the DRAM
system.mem_ctrls.totBusLat                   16145000                       # Total ticks spent in databus transfers
system.mem_ctrls.avgQLat                    139392.92                       # Average queueing delay per DRAM burst
system.mem_ctrls.avgBusLat                    5000.00                       # Average bus latency per DRAM burst
system.mem_ctrls.avgMemAccLat               158142.92                       # Average memory access latency per DRAM burst
system.mem_ctrls.avgRdBW                        13.54                       # Average DRAM read bandwidth in MiByte/s
system.mem_ctrls.avgWrBW                         0.00                       # Average achieved write bandwidth in MiByte/s
system.mem_ctrls.avgRdBWSys                     13.54                       # Average system read bandwidth in MiByte/s
system.mem_ctrls.avgWrBWSys                      0.00                       # Average system write bandwidth in MiByte/s
system.mem_ctrls.peakBW                      12800.00                       # Theoretical peak bandwidth in MiByte/s
system.mem_ctrls.busUtil                         0.11                       # Data bus utilization in percentage
system.mem_ctrls.busUtilRead                     0.11                       # Data bus utilization in percentage for reads
system.mem_ctrls.busUtilWrite                    0.00                       # Data bus utilization in percentage for writes
system.mem_ctrls.avgRdQLen                       1.00                       # Average read queue length when enqueuing
system.mem_ctrls.avgWrQLen                       0.00                       # Average write queue length when enqueuing
system.mem_ctrls.readRowHits                       49                       # Number of row buffer hits during reads
system.mem_ctrls.writeRowHits                       0                       # Number of row buffer hits during writes
system.mem_ctrls.readRowHitRate                  1.52                       # Row buffer hit rate for reads
system.mem_ctrls.writeRowHitRate                  nan                       # Row buffer hit rate for writes
system.mem_ctrls.avgGap                    4728987.61                       # Average gap between requests
system.mem_ctrls.pageHitRate                     1.52                       # Row buffer hit rate, read and write combined
system.mem_ctrls_0.actEnergy                 10388700                       # Energy for activate commands per rank (pJ)
system.mem_ctrls_0.preEnergy                  5521725                       # Energy for precharge commands per rank (pJ)
system.mem_ctrls_0.readEnergy                10602900                       # Energy for read commands per rank (pJ)
system.mem_ctrls_0.writeEnergy                      0                       # Energy for write commands per rank (pJ)
system.mem_ctrls_0.refreshEnergy         1279065840.000000                       # Energy for refresh commands per rank (pJ)
system.mem_ctrls_0.actBackEnergy            259579710                       # Energy for active background per rank (pJ)
system.mem_ctrls_0.preBackEnergy             52486560                       # Energy for precharge background per rank (pJ)
system.mem_ctrls_0.actPowerDownEnergy      2929848450                       # Energy for active power-down per rank (pJ)
system.mem_ctrls_0.prePowerDownEnergy      2616604320                       # Energy for precharge power-down per rank (pJ)
system.mem_ctrls_0.selfRefreshEnergy        489080940                       # Energy for self refresh per rank (pJ)
system.mem_ctrls_0.totalEnergy             7654951035                       # Total energy per rank (pJ)
system.mem_ctrls_0.averagePower            501.393757                       # Core power per rank (mW)
system.mem_ctrls_0.totalIdleTime          13912265500                       # Total Idle time Per DRAM Rank
system.mem_ctrls_0.memoryStateTime::IDLE     90378000                       # Time in different power states
system.mem_ctrls_0.memoryStateTime::REF     543148000                       # Time in different power states
system.mem_ctrls_0.memoryStateTime::SREF   1318280625                       # Time in different power states
system.mem_ctrls_0.memoryStateTime::PRE_PDN   6814164500                       # Time in different power states
system.mem_ctrls_0.memoryStateTime::ACT      76298500                       # Time in different power states
system.mem_ctrls_0.memoryStateTime::ACT_PDN   6425074500                       # Time in different power states
system.mem_ctrls_1.actEnergy                 12316500                       # Energy for activate commands per rank (pJ)
system.mem_ctrls_1.preEnergy                  6550170                       # Energy for precharge commands per rank (pJ)
system.mem_ctrls_1.readEnergy                12452160                       # Energy for read commands per rank (pJ)
system.mem_ctrls_1.writeEnergy                      0                       # Energy for write commands per rank (pJ)
system.mem_ctrls_1.refreshEnergy         1358969040.000000                       # Energy for refresh commands per rank (pJ)
system.mem_ctrls_1.actBackEnergy            278725440                       # Energy for active background per rank (pJ)
system.mem_ctrls_1.preBackEnergy             62430240                       # Energy for precharge background per rank (pJ)
system.mem_ctrls_1.actPowerDownEnergy      3007648890                       # Energy for active power-down per rank (pJ)
system.mem_ctrls_1.prePowerDownEnergy      2660693760                       # Energy for precharge power-down per rank (pJ)
system.mem_ctrls_1.selfRefreshEnergy        453987540                       # Energy for self refresh per rank (pJ)
system.mem_ctrls_1.totalEnergy             7855763070                       # Total energy per rank (pJ)
system.mem_ctrls_1.averagePower            514.546800                       # Core power per rank (mW)
system.mem_ctrls_1.totalIdleTime          14488322750                       # Total Idle time Per DRAM Rank
system.mem_ctrls_1.memoryStateTime::IDLE    114138000                       # Time in different power states
system.mem_ctrls_1.memoryStateTime::REF     577440000                       # Time in different power states
system.mem_ctrls_1.memoryStateTime::SREF    964480500                       # Time in different power states
system.mem_ctrls_1.memoryStateTime::PRE_PDN   6928842125                       # Time in different power states
system.mem_ctrls_1.memoryStateTime::ACT      86754750                       # Time in different power states
system.mem_ctrls_1.memoryStateTime::ACT_PDN   6595688750                       # Time in different power states
system.pwrStateResidencyTicks::UNDEFINED  15267344125                       # Cumulative time (in ticks) in various power states
system.cpu0.branchPred.lookups               12733724                       # Number of BP lookups
system.cpu0.branchPred.condPredicted         12733724                       # Number of conditional branches predicted
system.cpu0.branchPred.condIncorrect          1048173                       # Number of conditional branches incorrect
system.cpu0.branchPred.BTBLookups            10585954                       # Number of BTB lookups
system.cpu0.branchPred.BTBHits                      0                       # Number of BTB hits
system.cpu0.branchPred.BTBCorrect                   0                       # Number of correct BTB predictions (this stat may not work properly.
system.cpu0.branchPred.BTBHitPct             0.000000                       # BTB Hit Percentage
system.cpu0.branchPred.usedRAS                 939962                       # Number of times the RAS was used to get a target.
system.cpu0.branchPred.RASInCorrect            201863                       # Number of incorrect RAS predictions.
system.cpu0.branchPred.indirectLookups       10585954                       # Number of indirect predictor lookups.
system.cpu0.branchPred.indirectHits           3497198                       # Number of indirect target hits.
system.cpu0.branchPred.indirectMisses         7088756                       # Number of indirect misses.
system.cpu0.branchPredindirectMispredicted       752898                       # Number of mispredicted indirect branches.
system.cpu_voltage_domain.voltage                   1                       # Voltage in Volts
system.cpu_clk_domain.clock                       500                       # Clock period in ticks
system.cpu0.dtb.walker.pwrStateResidencyTicks::UNDEFINED  15267344125                       # Cumulative time (in ticks) in various power states
system.cpu0.dtb.rdAccesses                    9627956                       # TLB accesses on read requests
system.cpu0.dtb.wrAccesses                    7236275                       # TLB accesses on write requests
system.cpu0.dtb.rdMisses                       127170                       # TLB misses on read requests
system.cpu0.dtb.wrMisses                        41895                       # TLB misses on write requests
system.cpu0.apic_clk_domain.clock                8000                       # Clock period in ticks
system.cpu0.interrupts.pwrStateResidencyTicks::UNDEFINED  15267344125                       # Cumulative time (in ticks) in various power states
system.cpu0.itb.walker.pwrStateResidencyTicks::UNDEFINED  15267344125                       # Cumulative time (in ticks) in various power states
system.cpu0.itb.rdAccesses                          0                       # TLB accesses on read requests
system.cpu0.itb.wrAccesses                    8633661                       # TLB accesses on write requests
system.cpu0.itb.rdMisses                            0                       # TLB misses on read requests
system.cpu0.itb.wrMisses                        17576                       # TLB misses on write requests
system.cpu0.workload.numSyscalls                   23                       # Number of system calls
system.cpu0.pwrStateResidencyTicks::ON    15267344125                       # Cumulative time (in ticks) in various power states
system.cpu0.numCycles                        30534688                       # number of cpu cycles simulated
system.cpu0.numWorkItemsStarted                     0                       # number of work items this cpu started
system.cpu0.numWorkItemsCompleted                   0                       # number of work items this cpu completed
system.cpu0.fetch.icacheStallCycles          10236288                       # Number of cycles fetch is stalled on an Icache miss
system.cpu0.fetch.Insts                      57239473                       # Number of instructions fetch has processed
system.cpu0.fetch.Branches                   12733724                       # Number of branches that fetch encountered
system.cpu0.fetch.predictedBranches           4437160                       # Number of branches that fetch has predicted taken
system.cpu0.fetch.Cycles                     19112097                       # Number of cycles fetch has run and was not squashing or blocked
system.cpu0.fetch.SquashCycles                2116674                       # Number of cycles fetch has spent squashing
system.cpu0.fetch.MiscStallCycles                9413                       # Number of cycles fetch has spent waiting on interrupts, or bad addresses, or out of MSHRs
system.cpu0.fetch.PendingTrapStallCycles        76153                       # Number of stall cycles due to pending traps
system.cpu0.fetch.CacheLines                  8616085                       # Number of cache lines fetched
system.cpu0.fetch.IcacheSquashes               282540                       # Number of outstanding Icache misses that were squashed
system.cpu0.fetch.rateDist::samples          30492288                       # Number of instructions fetched each cycle (Total)
system.cpu0.fetch.rateDist::mean             3.592771                       # Number of instructions fetched each cycle (Total)
system.cpu0.fetch.rateDist::stdev            3.579839                       # Number of instructions fetched each cycle (Total)
system.cpu0.fetch.rateDist::underflows              0      0.00%      0.00% # Number of instructions fetched each cycle (Total)
system.cpu0.fetch.rateDist::0                13019142     42.70%     42.70% # Number of instructions fetched each cycle (Total)
system.cpu0.fetch.rateDist::1                  821347      2.69%     45.39% # Number of instructions fetched each cycle (Total)
system.cpu0.fetch.rateDist::2                 1203657      3.95%     49.34% # Number of instructions fetched each cycle (Total)
system.cpu0.fetch.rateDist::3                 1382194      4.53%     53.87% # Number of instructions fetched each cycle (Total)
system.cpu0.fetch.rateDist::4                 1074972      3.53%     57.40% # Number of instructions fetched each cycle (Total)
system.cpu0.fetch.rateDist::5                 1075101      3.53%     60.92% # Number of instructions fetched each cycle (Total)
system.cpu0.fetch.rateDist::6                  989653      3.25%     64.17% # Number of instructions fetched each cycle (Total)
system.cpu0.fetch.rateDist::7                  846508      2.78%     66.94% # Number of instructions fetched each cycle (Total)
system.cpu0.fetch.rateDist::8                10079714     33.06%    100.00% # Number of instructions fetched each cycle (Total)
system.cpu0.fetch.rateDist::overflows               0      0.00%    100.00% # Number of instructions fetched each cycle (Total)
system.cpu0.fetch.rateDist::min_value               0                       # Number of instructions fetched each cycle (Total)
system.cpu0.fetch.rateDist::max_value               8                       # Number of instructions fetched each cycle (Total)
system.cpu0.fetch.rateDist::total            30492288                       # Number of instructions fetched each cycle (Total)
system.cpu0.fetch.branchRate                 0.417025                       # Number of branch fetches per cycle
system.cpu0.fetch.rate                       1.874572                       # Number of inst fetches per cycle
system.cpu0.decode.IdleCycles                 9177828                       # Number of cycles decode is idle
system.cpu0.decode.BlockedCycles              4276963                       # Number of cycles decode is blocked
system.cpu0.decode.RunCycles                 15069181                       # Number of cycles decode is running
system.cpu0.decode.UnblockCycles               909979                       # Number of cycles decode is unblocking
system.cpu0.decode.SquashCycles               1058337                       # Number of cycles decode is squashing
system.cpu0.decode.DecodedInsts             104375830                       # Number of instructions handled by decode
system.cpu0.rename.SquashCycles               1058337                       # Number of cycles rename is squashing
system.cpu0.rename.IdleCycles                 9904329                       # Number of cycles rename is idle
system.cpu0.rename.BlockCycles                3110328                       # Number of cycles rename is blocking
system.cpu0.rename.serializeStallCycles         11505                       # count of cycles rename stalled for serializing inst
system.cpu0.rename.RunCycles                 15192489                       # Number of cycles rename is running
system.cpu0.rename.UnblockCycles              1215300                       # Number of cycles rename is unblocking
system.cpu0.rename.RenamedInsts              99609627                       # Number of instructions processed by rename
system.cpu0.rename.ROBFullEvents                 1130                       # Number of times rename has blocked due to ROB full
system.cpu0.rename.IQFullEvents                 82600                       # Number of times rename has blocked due to IQ full
system.cpu0.rename.LQFullEvents                   104                       # Number of times rename has blocked due to LQ full
system.cpu0.rename.SQFullEvents               1078471                       # Number of times rename has blocked due to SQ full
system.cpu0.rename.RenamedOperands          106021857                       # Number of destination operands rename has renamed
system.cpu0.rename.RenameLookups            250962474                       # Number of register rename lookups that rename has made
system.cpu0.rename.int_rename_lookups       149626787                       # Number of integer rename lookups
system.cpu0.rename.fp_rename_lookups          3083973                       # Number of floating rename lookups
system.cpu0.rename.CommittedMaps             66372541                       # Number of HB maps that are committed
system.cpu0.rename.UndoneMaps                39649230                       # Number of HB maps that are undone due to squashing
system.cpu0.rename.serializingInsts               552                       # count of serializing insts renamed
system.cpu0.rename.tempSerializingInsts           637                       # count of temporary serializing insts renamed
system.cpu0.rename.skidInsts                   904004                       # count of insts added to the skid buffer
system.cpu0.memDep0.insertedLoads            11429373                       # Number of loads inserted to the mem dependence unit.
system.cpu0.memDep0.insertedStores            8554681                       # Number of stores inserted to the mem dependence unit.
system.cpu0.memDep0.conflictingLoads           463540                       # Number of conflicting loads.
system.cpu0.memDep0.conflictingStores          178073                       # Number of conflicting stores.
system.cpu0.iq.iqInstsAdded                  89829862                       # Number of instructions added to the IQ (excludes non-spec)
system.cpu0.iq.iqNonSpecInstsAdded              50162                       # Number of non-speculative instructions added to the IQ
system.cpu0.iq.iqInstsIssued                 80306215                       # Number of instructions issued
system.cpu0.iq.iqSquashedInstsIssued           423792                       # Number of squashed instructions issued
system.cpu0.iq.iqSquashedInstsExamined       27783078                       # Number of squashed instructions iterated over during squash; mainly for profiling
system.cpu0.iq.iqSquashedOperandsExamined     40186496                       # Number of squashed operands that are examined and possibly removed from graph
system.cpu0.iq.iqSquashedNonSpecRemoved         50139                       # Number of squashed non-spec instructions that were removed
system.cpu0.iq.issued_per_cycle::samples     30492288                       # Number of insts issued each cycle
system.cpu0.iq.issued_per_cycle::mean        2.633657                       # Number of insts issued each cycle
system.cpu0.iq.issued_per_cycle::stdev       2.513980                       # Number of insts issued each cycle
system.cpu0.iq.issued_per_cycle::underflows            0      0.00%      0.00% # Number of insts issued each cycle
system.cpu0.iq.issued_per_cycle::0           10300927     33.78%     33.78% # Number of insts issued each cycle
system.cpu0.iq.issued_per_cycle::1            2832824      9.29%     43.07% # Number of insts issued each cycle
system.cpu0.iq.issued_per_cycle::2            3052793     10.01%     53.08% # Number of insts issued each cycle
system.cpu0.iq.issued_per_cycle::3            3055427     10.02%     63.10% # Number of insts issued each cycle
system.cpu0.iq.issued_per_cycle::4            3042359      9.98%     73.08% # Number of insts issued each cycle
system.cpu0.iq.issued_per_cycle::5            2697070      8.85%     81.93% # Number of insts issued each cycle
system.cpu0.iq.issued_per_cycle::6            2987250      9.80%     91.72% # Number of insts issued each cycle
system.cpu0.iq.issued_per_cycle::7            1565866      5.14%     96.86% # Number of insts issued each cycle
system.cpu0.iq.issued_per_cycle::8             957772      3.14%    100.00% # Number of insts issued each cycle
system.cpu0.iq.issued_per_cycle::overflows            0      0.00%    100.00% # Number of insts issued each cycle
system.cpu0.iq.issued_per_cycle::min_value            0                       # Number of insts issued each cycle
system.cpu0.iq.issued_per_cycle::max_value            8                       # Number of insts issued each cycle
system.cpu0.iq.issued_per_cycle::total       30492288                       # Number of insts issued each cycle
system.cpu0.iq.fu_full::No_OpClass                  0      0.00%      0.00% # attempts to use FU when none available
system.cpu0.iq.fu_full::IntAlu                 746208     72.31%     72.31% # attempts to use FU when none available
system.cpu0.iq.fu_full::IntMult                     0      0.00%     72.31% # attempts to use FU when none available
system.cpu0.iq.fu_full::IntDiv                      0      0.00%     72.31% # attempts to use FU when none available
system.cpu0.iq.fu_full::FloatAdd                14685      1.42%     73.73% # attempts to use FU when none available
system.cpu0.iq.fu_full::FloatCmp                    0      0.00%     73.73% # attempts to use FU when none available
system.cpu0.iq.fu_full::FloatCvt                    0      0.00%     73.73% # attempts to use FU when none available
system.cpu0.iq.fu_full::FloatMult                   0      0.00%     73.73% # attempts to use FU when none available
system.cpu0.iq.fu_full::FloatMultAcc                0      0.00%     73.73% # attempts to use FU when none available
system.cpu0.iq.fu_full::FloatDiv                    0      0.00%     73.73% # attempts to use FU when none available
system.cpu0.iq.fu_full::FloatMisc                   0      0.00%     73.73% # attempts to use FU when none available
system.cpu0.iq.fu_full::FloatSqrt                   0      0.00%     73.73% # attempts to use FU when none available
system.cpu0.iq.fu_full::SimdAdd                     0      0.00%     73.73% # attempts to use FU when none available
system.cpu0.iq.fu_full::SimdAddAcc                  0      0.00%     73.73% # attempts to use FU when none available
system.cpu0.iq.fu_full::SimdAlu                     0      0.00%     73.73% # attempts to use FU when none available
system.cpu0.iq.fu_full::SimdCmp                     0      0.00%     73.73% # attempts to use FU when none available
system.cpu0.iq.fu_full::SimdCvt                     0      0.00%     73.73% # attempts to use FU when none available
system.cpu0.iq.fu_full::SimdMisc                    0      0.00%     73.73% # attempts to use FU when none available
system.cpu0.iq.fu_full::SimdMult                    0      0.00%     73.73% # attempts to use FU when none available
system.cpu0.iq.fu_full::SimdMultAcc                 0      0.00%     73.73% # attempts to use FU when none available
system.cpu0.iq.fu_full::SimdShift                   0      0.00%     73.73% # attempts to use FU when none available
system.cpu0.iq.fu_full::SimdShiftAcc                0      0.00%     73.73% # attempts to use FU when none available
system.cpu0.iq.fu_full::SimdSqrt                    0      0.00%     73.73% # attempts to use FU when none available
system.cpu0.iq.fu_full::SimdFloatAdd                0      0.00%     73.73% # attempts to use FU when none available
system.cpu0.iq.fu_full::SimdFloatAlu                0      0.00%     73.73% # attempts to use FU when none available
system.cpu0.iq.fu_full::SimdFloatCmp                0      0.00%     73.73% # attempts to use FU when none available
system.cpu0.iq.fu_full::SimdFloatCvt                0      0.00%     73.73% # attempts to use FU when none available
system.cpu0.iq.fu_full::SimdFloatDiv                0      0.00%     73.73% # attempts to use FU when none available
system.cpu0.iq.fu_full::SimdFloatMisc               0      0.00%     73.73% # attempts to use FU when none available
system.cpu0.iq.fu_full::SimdFloatMult               0      0.00%     73.73% # attempts to use FU when none available
system.cpu0.iq.fu_full::SimdFloatMultAcc            0      0.00%     73.73% # attempts to use FU when none available
system.cpu0.iq.fu_full::SimdFloatSqrt               0      0.00%     73.73% # attempts to use FU when none available
system.cpu0.iq.fu_full::MemRead                 96812      9.38%     83.11% # attempts to use FU when none available
system.cpu0.iq.fu_full::MemWrite                86196      8.35%     91.46% # attempts to use FU when none available
system.cpu0.iq.fu_full::FloatMemRead              608      0.06%     91.52% # attempts to use FU when none available
system.cpu0.iq.fu_full::FloatMemWrite           87481      8.48%    100.00% # attempts to use FU when none available
system.cpu0.iq.fu_full::IprAccess                   0      0.00%    100.00% # attempts to use FU when none available
system.cpu0.iq.fu_full::InstPrefetch                0      0.00%    100.00% # attempts to use FU when none available
system.cpu0.iq.FU_type_0::No_OpClass           483861      0.60%      0.60% # Type of FU issued
system.cpu0.iq.FU_type_0::IntAlu             60836055     75.76%     76.36% # Type of FU issued
system.cpu0.iq.FU_type_0::IntMult               72664      0.09%     76.45% # Type of FU issued
system.cpu0.iq.FU_type_0::IntDiv                84366      0.11%     76.55% # Type of FU issued
system.cpu0.iq.FU_type_0::FloatAdd            1128418      1.41%     77.96% # Type of FU issued
system.cpu0.iq.FU_type_0::FloatCmp                  0      0.00%     77.96% # Type of FU issued
system.cpu0.iq.FU_type_0::FloatCvt                  0      0.00%     77.96% # Type of FU issued
system.cpu0.iq.FU_type_0::FloatMult                 0      0.00%     77.96% # Type of FU issued
system.cpu0.iq.FU_type_0::FloatMultAcc              0      0.00%     77.96% # Type of FU issued
system.cpu0.iq.FU_type_0::FloatDiv                  0      0.00%     77.96% # Type of FU issued
system.cpu0.iq.FU_type_0::FloatMisc                 0      0.00%     77.96% # Type of FU issued
system.cpu0.iq.FU_type_0::FloatSqrt                 0      0.00%     77.96% # Type of FU issued
system.cpu0.iq.FU_type_0::SimdAdd                   0      0.00%     77.96% # Type of FU issued
system.cpu0.iq.FU_type_0::SimdAddAcc                0      0.00%     77.96% # Type of FU issued
system.cpu0.iq.FU_type_0::SimdAlu                   0      0.00%     77.96% # Type of FU issued
system.cpu0.iq.FU_type_0::SimdCmp                   0      0.00%     77.96% # Type of FU issued
system.cpu0.iq.FU_type_0::SimdCvt                   0      0.00%     77.96% # Type of FU issued
system.cpu0.iq.FU_type_0::SimdMisc                  0      0.00%     77.96% # Type of FU issued
system.cpu0.iq.FU_type_0::SimdMult                  0      0.00%     77.96% # Type of FU issued
system.cpu0.iq.FU_type_0::SimdMultAcc               0      0.00%     77.96% # Type of FU issued
system.cpu0.iq.FU_type_0::SimdShift                 0      0.00%     77.96% # Type of FU issued
system.cpu0.iq.FU_type_0::SimdShiftAcc              0      0.00%     77.96% # Type of FU issued
system.cpu0.iq.FU_type_0::SimdSqrt                  0      0.00%     77.96% # Type of FU issued
system.cpu0.iq.FU_type_0::SimdFloatAdd              0      0.00%     77.96% # Type of FU issued
system.cpu0.iq.FU_type_0::SimdFloatAlu              0      0.00%     77.96% # Type of FU issued
system.cpu0.iq.FU_type_0::SimdFloatCmp              0      0.00%     77.96% # Type of FU issued
system.cpu0.iq.FU_type_0::SimdFloatCvt              0      0.00%     77.96% # Type of FU issued
system.cpu0.iq.FU_type_0::SimdFloatDiv              0      0.00%     77.96% # Type of FU issued
system.cpu0.iq.FU_type_0::SimdFloatMisc             0      0.00%     77.96% # Type of FU issued
system.cpu0.iq.FU_type_0::SimdFloatMult             0      0.00%     77.96% # Type of FU issued
system.cpu0.iq.FU_type_0::SimdFloatMultAcc            0      0.00%     77.96% # Type of FU issued
system.cpu0.iq.FU_type_0::SimdFloatSqrt             0      0.00%     77.96% # Type of FU issued
system.cpu0.iq.FU_type_0::MemRead             9762241     12.16%     90.11% # Type of FU issued
system.cpu0.iq.FU_type_0::MemWrite            7274754      9.06%     99.17% # Type of FU issued
system.cpu0.iq.FU_type_0::FloatMemRead         383327      0.48%     99.65% # Type of FU issued
system.cpu0.iq.FU_type_0::FloatMemWrite        280529      0.35%    100.00% # Type of FU issued
system.cpu0.iq.FU_type_0::IprAccess                 0      0.00%    100.00% # Type of FU issued
system.cpu0.iq.FU_type_0::InstPrefetch              0      0.00%    100.00% # Type of FU issued
system.cpu0.iq.FU_type_0::total              80306215                       # Type of FU issued
system.cpu0.iq.rate                          2.630000                       # Inst issue rate
system.cpu0.iq.fu_busy_cnt                    1031990                       # FU busy when requested
system.cpu0.iq.fu_busy_rate                  0.012851                       # FU busy rate (busy events/executed inst)
system.cpu0.iq.int_inst_queue_reads         188722683                       # Number of integer instruction queue reads
system.cpu0.iq.int_inst_queue_writes        114630571                       # Number of integer instruction queue writes
system.cpu0.iq.int_inst_queue_wakeup_accesses     75001072                       # Number of integer instruction queue wakeup accesses
system.cpu0.iq.fp_inst_queue_reads            3837810                       # Number of floating instruction queue reads
system.cpu0.iq.fp_inst_queue_writes           3033523                       # Number of floating instruction queue writes
system.cpu0.iq.fp_inst_queue_wakeup_accesses      1731804                       # Number of floating instruction queue wakeup accesses
system.cpu0.iq.vec_inst_queue_reads                 0                       # Number of vector instruction queue reads
system.cpu0.iq.vec_inst_queue_writes                0                       # Number of vector instruction queue writes
system.cpu0.iq.vec_inst_queue_wakeup_accesses            0                       # Number of vector instruction queue wakeup accesses
system.cpu0.iq.int_alu_accesses              78917269                       # Number of integer alu accesses
system.cpu0.iq.fp_alu_accesses                1937075                       # Number of floating point alu accesses
system.cpu0.iq.vec_alu_accesses                     0                       # Number of vector alu accesses
system.cpu0.iew.lsq.thread0.forwLoads         1161001                       # Number of loads that had data forwarded from stores
system.cpu0.iew.lsq.thread0.invAddrLoads            0                       # Number of loads ignored due to an invalid address
system.cpu0.iew.lsq.thread0.squashedLoads      3994019                       # Number of loads squashed
system.cpu0.iew.lsq.thread0.ignoredResponses         8686                       # Number of memory responses ignored because the instruction is squashed
system.cpu0.iew.lsq.thread0.memOrderViolation         2841                       # Number of memory ordering violations
system.cpu0.iew.lsq.thread0.squashedStores      2473731                       # Number of stores squashed
system.cpu0.iew.lsq.thread0.invAddrSwpfs            0                       # Number of software prefetches ignored due to an invalid address
system.cpu0.iew.lsq.thread0.blockedLoads            0                       # Number of blocked loads due to partial load-store forwarding
system.cpu0.iew.lsq.thread0.rescheduledLoads          137                       # Number of loads that were rescheduled
system.cpu0.iew.lsq.thread0.cacheBlocked            2                       # Number of times an access to memory failed due to the cache being blocked
system.cpu0.iew.iewIdleCycles                       0                       # Number of cycles IEW is idle
system.cpu0.iew.iewSquashCycles               1058337                       # Number of cycles IEW is squashing
system.cpu0.iew.iewBlockCycles                3155592                       # Number of cycles IEW is blocking
system.cpu0.iew.iewUnblockCycles                 8009                       # Number of cycles IEW is unblocking
system.cpu0.iew.iewDispatchedInsts           89880024                       # Number of instructions dispatched to IQ
system.cpu0.iew.iewDispSquashedInsts            21081                       # Number of squashed instructions skipped by dispatch
system.cpu0.iew.iewDispLoadInsts             11429373                       # Number of dispatched load instructions
system.cpu0.iew.iewDispStoreInsts             8554681                       # Number of dispatched store instructions
system.cpu0.iew.iewDispNonSpecInsts             17547                       # Number of dispatched non-speculative instructions
system.cpu0.iew.iewIQFullEvents                   779                       # Number of times the IQ has become full, causing a stall
system.cpu0.iew.iewLSQFullEvents                 5942                       # Number of times the LSQ has become full, causing a stall
system.cpu0.iew.memOrderViolationEvents          2841                       # Number of memory order violations
system.cpu0.iew.predictedTakenIncorrect        287388                       # Number of branches that were predicted taken incorrectly
system.cpu0.iew.predictedNotTakenIncorrect      1095492                       # Number of branches that were predicted not taken incorrectly
system.cpu0.iew.branchMispredicts             1382880                       # Number of branch mispredicts detected at execute
system.cpu0.iew.iewExecutedInsts             77832854                       # Number of executed instructions
system.cpu0.iew.iewExecLoadInsts              9621431                       # Number of load instructions executed
system.cpu0.iew.iewExecSquashedInsts          2473354                       # Number of squashed instructions skipped in execute
system.cpu0.iew.exec_swp                            0                       # number of swp insts executed
system.cpu0.iew.exec_nop                            0                       # number of nop insts executed
system.cpu0.iew.exec_refs                    16850886                       # number of memory reference insts executed
system.cpu0.iew.exec_branches                 8439044                       # Number of branches executed
system.cpu0.iew.exec_stores                   7229455                       # Number of stores executed
system.cpu0.iew.exec_rate                    2.548998                       # Inst execution rate
system.cpu0.iew.wb_sent                      77302999                       # cumulative count of insts sent to commit
system.cpu0.iew.wb_count                     76732876                       # cumulative count of insts written-back
system.cpu0.iew.wb_producers                 53595308                       # num instructions producing a value
system.cpu0.iew.wb_consumers                 83878156                       # num instructions consuming a value
system.cpu0.iew.wb_rate                      2.512974                       # insts written-back per cycle
system.cpu0.iew.wb_fanout                    0.638966                       # average fanout of values written-back
system.cpu0.commit.commitSquashedInsts       27783630                       # The number of squashed insts skipped by commit
system.cpu0.commit.commitNonSpecStalls             23                       # The number of times commit has been forced to stall to communicate backwards
system.cpu0.commit.branchMispredicts          1057688                       # The number of times a branch was mispredicted
system.cpu0.commit.committed_per_cycle::samples     26302557                       # Number of insts commited each cycle
system.cpu0.commit.committed_per_cycle::mean     2.360868                       # Number of insts commited each cycle
system.cpu0.commit.committed_per_cycle::stdev     2.714510                       # Number of insts commited each cycle
system.cpu0.commit.committed_per_cycle::underflows            0      0.00%      0.00% # Number of insts commited each cycle
system.cpu0.commit.committed_per_cycle::0      9943068     37.80%     37.80% # Number of insts commited each cycle
system.cpu0.commit.committed_per_cycle::1      3714370     14.12%     51.92% # Number of insts commited each cycle
system.cpu0.commit.committed_per_cycle::2      2591819      9.85%     61.78% # Number of insts commited each cycle
system.cpu0.commit.committed_per_cycle::3      3497085     13.30%     75.07% # Number of insts commited each cycle
system.cpu0.commit.committed_per_cycle::4      1100784      4.19%     79.26% # Number of insts commited each cycle
system.cpu0.commit.committed_per_cycle::5      1099063      4.18%     83.44% # Number of insts commited each cycle
system.cpu0.commit.committed_per_cycle::6       794734      3.02%     86.46% # Number of insts commited each cycle
system.cpu0.commit.committed_per_cycle::7       452335      1.72%     88.18% # Number of insts commited each cycle
system.cpu0.commit.committed_per_cycle::8      3109299     11.82%    100.00% # Number of insts commited each cycle
system.cpu0.commit.committed_per_cycle::overflows            0      0.00%    100.00% # Number of insts commited each cycle
system.cpu0.commit.committed_per_cycle::min_value            0                       # Number of insts commited each cycle
system.cpu0.commit.committed_per_cycle::max_value            8                       # Number of insts commited each cycle
system.cpu0.commit.committed_per_cycle::total     26302557                       # Number of insts commited each cycle
system.cpu0.commit.committedInsts            32788582                       # Number of instructions committed
system.cpu0.commit.committedOps              62096855                       # Number of ops (including micro ops) committed
system.cpu0.commit.swp_count                        0                       # Number of s/w prefetches committed
system.cpu0.commit.refs                      13516275                       # Number of memory references committed
system.cpu0.commit.loads                      7435344                       # Number of loads committed
system.cpu0.commit.membars                          0                       # Number of memory barriers committed
system.cpu0.commit.branches                   7228122                       # Number of branches committed
system.cpu0.commit.vec_insts                        0                       # Number of committed Vector instructions.
system.cpu0.commit.fp_insts                   1262907                       # Number of committed floating point instructions.
system.cpu0.commit.int_insts                 61148172                       # Number of committed integer instructions.
system.cpu0.commit.function_calls              448514                       # Number of function calls committed.
system.cpu0.commit.op_class_0::No_OpClass       251518      0.41%      0.41% # Class of committed instruction
system.cpu0.commit.op_class_0::IntAlu        47248947     76.09%     76.49% # Class of committed instruction
system.cpu0.commit.op_class_0::IntMult          52623      0.08%     76.58% # Class of committed instruction
system.cpu0.commit.op_class_0::IntDiv           73500      0.12%     76.70% # Class of committed instruction
system.cpu0.commit.op_class_0::FloatAdd        953992      1.54%     78.23% # Class of committed instruction
system.cpu0.commit.op_class_0::FloatCmp             0      0.00%     78.23% # Class of committed instruction
system.cpu0.commit.op_class_0::FloatCvt             0      0.00%     78.23% # Class of committed instruction
system.cpu0.commit.op_class_0::FloatMult            0      0.00%     78.23% # Class of committed instruction
system.cpu0.commit.op_class_0::FloatMultAcc            0      0.00%     78.23% # Class of committed instruction
system.cpu0.commit.op_class_0::FloatDiv             0      0.00%     78.23% # Class of committed instruction
system.cpu0.commit.op_class_0::FloatMisc            0      0.00%     78.23% # Class of committed instruction
system.cpu0.commit.op_class_0::FloatSqrt            0      0.00%     78.23% # Class of committed instruction
system.cpu0.commit.op_class_0::SimdAdd              0      0.00%     78.23% # Class of committed instruction
system.cpu0.commit.op_class_0::SimdAddAcc            0      0.00%     78.23% # Class of committed instruction
system.cpu0.commit.op_class_0::SimdAlu              0      0.00%     78.23% # Class of committed instruction
system.cpu0.commit.op_class_0::SimdCmp              0      0.00%     78.23% # Class of committed instruction
system.cpu0.commit.op_class_0::SimdCvt              0      0.00%     78.23% # Class of committed instruction
system.cpu0.commit.op_class_0::SimdMisc             0      0.00%     78.23% # Class of committed instruction
system.cpu0.commit.op_class_0::SimdMult             0      0.00%     78.23% # Class of committed instruction
system.cpu0.commit.op_class_0::SimdMultAcc            0      0.00%     78.23% # Class of committed instruction
system.cpu0.commit.op_class_0::SimdShift            0      0.00%     78.23% # Class of committed instruction
system.cpu0.commit.op_class_0::SimdShiftAcc            0      0.00%     78.23% # Class of committed instruction
system.cpu0.commit.op_class_0::SimdSqrt             0      0.00%     78.23% # Class of committed instruction
system.cpu0.commit.op_class_0::SimdFloatAdd            0      0.00%     78.23% # Class of committed instruction
system.cpu0.commit.op_class_0::SimdFloatAlu            0      0.00%     78.23% # Class of committed instruction
system.cpu0.commit.op_class_0::SimdFloatCmp            0      0.00%     78.23% # Class of committed instruction
system.cpu0.commit.op_class_0::SimdFloatCvt            0      0.00%     78.23% # Class of committed instruction
system.cpu0.commit.op_class_0::SimdFloatDiv            0      0.00%     78.23% # Class of committed instruction
system.cpu0.commit.op_class_0::SimdFloatMisc            0      0.00%     78.23% # Class of committed instruction
system.cpu0.commit.op_class_0::SimdFloatMult            0      0.00%     78.23% # Class of committed instruction
system.cpu0.commit.op_class_0::SimdFloatMultAcc            0      0.00%     78.23% # Class of committed instruction
system.cpu0.commit.op_class_0::SimdFloatSqrt            0      0.00%     78.23% # Class of committed instruction
system.cpu0.commit.op_class_0::MemRead        7168456     11.54%     89.78% # Class of committed instruction
system.cpu0.commit.op_class_0::MemWrite       6080931      9.79%     99.57% # Class of committed instruction
system.cpu0.commit.op_class_0::FloatMemRead       266888      0.43%    100.00% # Class of committed instruction
system.cpu0.commit.op_class_0::FloatMemWrite            0      0.00%    100.00% # Class of committed instruction
system.cpu0.commit.op_class_0::IprAccess            0      0.00%    100.00% # Class of committed instruction
system.cpu0.commit.op_class_0::InstPrefetch            0      0.00%    100.00% # Class of committed instruction
system.cpu0.commit.op_class_0::total         62096855                       # Class of committed instruction
system.cpu0.commit.bw_lim_events              3109299                       # number cycles where commit BW limit reached
system.cpu0.rob.rob_reads                   113073743                       # The number of ROB reads
system.cpu0.rob.rob_writes                  184030537                       # The number of ROB writes
system.cpu0.timesIdled                          12883                       # Number of times that the entire CPU went into an idle state and unscheduled itself
system.cpu0.idleCycles                          42400                       # Total number of cycles that the CPU has spent unscheduled due to idling
system.cpu0.committedInsts                   32788582                       # Number of Instructions Simulated
system.cpu0.committedOps                     62096855                       # Number of Ops (including micro ops) Simulated
system.cpu0.cpi                              0.931260                       # CPI: Cycles Per Instruction
system.cpu0.cpi_total                        0.931260                       # CPI: Total CPI of All Threads
system.cpu0.ipc                              1.073814                       # IPC: Instructions Per Cycle
system.cpu0.ipc_total                        1.073814                       # IPC: Total IPC of All Threads
system.cpu0.int_regfile_reads               112602238                       # number of integer regfile reads
system.cpu0.int_regfile_writes               60114981                       # number of integer regfile writes
system.cpu0.fp_regfile_reads                  2438866                       # number of floating regfile reads
system.cpu0.fp_regfile_writes                 1200595                       # number of floating regfile writes
system.cpu0.cc_regfile_reads                 39310138                       # number of cc regfile reads
system.cpu0.cc_regfile_writes                20579544                       # number of cc regfile writes
system.cpu0.misc_regfile_reads               34214719                       # number of misc regfile reads
system.cpu0.dcache.tags.pwrStateResidencyTicks::UNDEFINED  15267344125                       # Cumulative time (in ticks) in various power states
system.cpu0.dcache.tags.replacements            13253                       # number of replacements
system.cpu0.dcache.tags.tagsinuse                 512                       # Cycle average of tags in use
system.cpu0.dcache.tags.total_refs            1509611                       # Total number of references to valid blocks.
system.cpu0.dcache.tags.sampled_refs            13253                       # Sample count of references to valid blocks.
system.cpu0.dcache.tags.avg_refs           113.907115                       # Average number of references to valid blocks.
system.cpu0.dcache.tags.warmup_cycle                0                       # Cycle when the warmup percentage was hit.
system.cpu0.dcache.tags.occ_blocks::cpu0.data          512                       # Average occupied blocks per requestor
system.cpu0.dcache.tags.occ_percent::cpu0.data            1                       # Average percentage of cache occupancy
system.cpu0.dcache.tags.occ_percent::total            1                       # Average percentage of cache occupancy
system.cpu0.dcache.tags.occ_task_id_blocks::1024          512                       # Occupied blocks per task id
system.cpu0.dcache.tags.age_task_id_blocks_1024::0            5                       # Occupied blocks per task id
system.cpu0.dcache.tags.age_task_id_blocks_1024::1           59                       # Occupied blocks per task id
system.cpu0.dcache.tags.age_task_id_blocks_1024::2          216                       # Occupied blocks per task id
system.cpu0.dcache.tags.age_task_id_blocks_1024::3          147                       # Occupied blocks per task id
system.cpu0.dcache.tags.age_task_id_blocks_1024::4           85                       # Occupied blocks per task id
system.cpu0.dcache.tags.occ_task_id_percent::1024            1                       # Percentage of cache occupancy per task id
system.cpu0.dcache.tags.tag_accesses         57708989                       # Number of tag accesses
system.cpu0.dcache.tags.data_accesses        57708989                       # Number of data accesses
system.cpu0.dcache.pwrStateResidencyTicks::UNDEFINED  15267344125                       # Cumulative time (in ticks) in various power states
system.cpu0.dcache.ReadReq_hits::cpu0.data      8317880                       # number of ReadReq hits
system.cpu0.dcache.ReadReq_hits::total        8317880                       # number of ReadReq hits
system.cpu0.dcache.WriteReq_hits::cpu0.data      6080431                       # number of WriteReq hits
system.cpu0.dcache.WriteReq_hits::total       6080431                       # number of WriteReq hits
system.cpu0.dcache.demand_hits::cpu0.data     14398311                       # number of demand (read+write) hits
system.cpu0.dcache.demand_hits::total        14398311                       # number of demand (read+write) hits
system.cpu0.dcache.overall_hits::cpu0.data     14398311                       # number of overall hits
system.cpu0.dcache.overall_hits::total       14398311                       # number of overall hits
system.cpu0.dcache.ReadReq_misses::cpu0.data        22069                       # number of ReadReq misses
system.cpu0.dcache.ReadReq_misses::total        22069                       # number of ReadReq misses
system.cpu0.dcache.WriteReq_misses::cpu0.data         3554                       # number of WriteReq misses
system.cpu0.dcache.WriteReq_misses::total         3554                       # number of WriteReq misses
system.cpu0.dcache.demand_misses::cpu0.data        25623                       # number of demand (read+write) misses
system.cpu0.dcache.demand_misses::total         25623                       # number of demand (read+write) misses
system.cpu0.dcache.overall_misses::cpu0.data        25623                       # number of overall misses
system.cpu0.dcache.overall_misses::total        25623                       # number of overall misses
system.cpu0.dcache.ReadReq_miss_latency::cpu0.data    285724500                       # number of ReadReq miss cycles
system.cpu0.dcache.ReadReq_miss_latency::total    285724500                       # number of ReadReq miss cycles
system.cpu0.dcache.WriteReq_miss_latency::cpu0.data    687689000                       # number of WriteReq miss cycles
system.cpu0.dcache.WriteReq_miss_latency::total    687689000                       # number of WriteReq miss cycles
system.cpu0.dcache.demand_miss_latency::cpu0.data    973413500                       # number of demand (read+write) miss cycles
system.cpu0.dcache.demand_miss_latency::total    973413500                       # number of demand (read+write) miss cycles
system.cpu0.dcache.overall_miss_latency::cpu0.data    973413500                       # number of overall miss cycles
system.cpu0.dcache.overall_miss_latency::total    973413500                       # number of overall miss cycles
system.cpu0.dcache.ReadReq_accesses::cpu0.data      8339949                       # number of ReadReq accesses(hits+misses)
system.cpu0.dcache.ReadReq_accesses::total      8339949                       # number of ReadReq accesses(hits+misses)
system.cpu0.dcache.WriteReq_accesses::cpu0.data      6083985                       # number of WriteReq accesses(hits+misses)
system.cpu0.dcache.WriteReq_accesses::total      6083985                       # number of WriteReq accesses(hits+misses)
system.cpu0.dcache.demand_accesses::cpu0.data     14423934                       # number of demand (read+write) accesses
system.cpu0.dcache.demand_accesses::total     14423934                       # number of demand (read+write) accesses
system.cpu0.dcache.overall_accesses::cpu0.data     14423934                       # number of overall (read+write) accesses
system.cpu0.dcache.overall_accesses::total     14423934                       # number of overall (read+write) accesses
system.cpu0.dcache.ReadReq_miss_rate::cpu0.data     0.002646                       # miss rate for ReadReq accesses
system.cpu0.dcache.ReadReq_miss_rate::total     0.002646                       # miss rate for ReadReq accesses
system.cpu0.dcache.WriteReq_miss_rate::cpu0.data     0.000584                       # miss rate for WriteReq accesses
system.cpu0.dcache.WriteReq_miss_rate::total     0.000584                       # miss rate for WriteReq accesses
system.cpu0.dcache.demand_miss_rate::cpu0.data     0.001776                       # miss rate for demand accesses
system.cpu0.dcache.demand_miss_rate::total     0.001776                       # miss rate for demand accesses
system.cpu0.dcache.overall_miss_rate::cpu0.data     0.001776                       # miss rate for overall accesses
system.cpu0.dcache.overall_miss_rate::total     0.001776                       # miss rate for overall accesses
system.cpu0.dcache.ReadReq_avg_miss_latency::cpu0.data 12946.871177                       # average ReadReq miss latency
system.cpu0.dcache.ReadReq_avg_miss_latency::total 12946.871177                       # average ReadReq miss latency
system.cpu0.dcache.WriteReq_avg_miss_latency::cpu0.data 193497.186269                       # average WriteReq miss latency
system.cpu0.dcache.WriteReq_avg_miss_latency::total 193497.186269                       # average WriteReq miss latency
system.cpu0.dcache.demand_avg_miss_latency::cpu0.data 37989.833353                       # average overall miss latency
system.cpu0.dcache.demand_avg_miss_latency::total 37989.833353                       # average overall miss latency
system.cpu0.dcache.overall_avg_miss_latency::cpu0.data 37989.833353                       # average overall miss latency
system.cpu0.dcache.overall_avg_miss_latency::total 37989.833353                       # average overall miss latency
system.cpu0.dcache.blocked_cycles::no_mshrs            2                       # number of cycles access was blocked
system.cpu0.dcache.blocked_cycles::no_targets            0                       # number of cycles access was blocked
system.cpu0.dcache.blocked::no_mshrs                1                       # number of cycles access was blocked
system.cpu0.dcache.blocked::no_targets              0                       # number of cycles access was blocked
system.cpu0.dcache.avg_blocked_cycles::no_mshrs            2                       # average number of cycles each access was blocked
system.cpu0.dcache.avg_blocked_cycles::no_targets          nan                       # average number of cycles each access was blocked
system.cpu0.dcache.writebacks::writebacks         9701                       # number of writebacks
system.cpu0.dcache.writebacks::total             9701                       # number of writebacks
system.cpu0.dcache.ReadReq_mshr_hits::cpu0.data        12344                       # number of ReadReq MSHR hits
system.cpu0.dcache.ReadReq_mshr_hits::total        12344                       # number of ReadReq MSHR hits
system.cpu0.dcache.WriteReq_mshr_hits::cpu0.data           24                       # number of WriteReq MSHR hits
system.cpu0.dcache.WriteReq_mshr_hits::total           24                       # number of WriteReq MSHR hits
system.cpu0.dcache.demand_mshr_hits::cpu0.data        12368                       # number of demand (read+write) MSHR hits
system.cpu0.dcache.demand_mshr_hits::total        12368                       # number of demand (read+write) MSHR hits
system.cpu0.dcache.overall_mshr_hits::cpu0.data        12368                       # number of overall MSHR hits
system.cpu0.dcache.overall_mshr_hits::total        12368                       # number of overall MSHR hits
system.cpu0.dcache.ReadReq_mshr_misses::cpu0.data         9725                       # number of ReadReq MSHR misses
system.cpu0.dcache.ReadReq_mshr_misses::total         9725                       # number of ReadReq MSHR misses
system.cpu0.dcache.WriteReq_mshr_misses::cpu0.data         3530                       # number of WriteReq MSHR misses
system.cpu0.dcache.WriteReq_mshr_misses::total         3530                       # number of WriteReq MSHR misses
system.cpu0.dcache.demand_mshr_misses::cpu0.data        13255                       # number of demand (read+write) MSHR misses
system.cpu0.dcache.demand_mshr_misses::total        13255                       # number of demand (read+write) MSHR misses
system.cpu0.dcache.overall_mshr_misses::cpu0.data        13255                       # number of overall MSHR misses
system.cpu0.dcache.overall_mshr_misses::total        13255                       # number of overall MSHR misses
system.cpu0.dcache.ReadReq_mshr_miss_latency::cpu0.data    120980000                       # number of ReadReq MSHR miss cycles
system.cpu0.dcache.ReadReq_mshr_miss_latency::total    120980000                       # number of ReadReq MSHR miss cycles
system.cpu0.dcache.WriteReq_mshr_miss_latency::cpu0.data    680933000                       # number of WriteReq MSHR miss cycles
system.cpu0.dcache.WriteReq_mshr_miss_latency::total    680933000                       # number of WriteReq MSHR miss cycles
system.cpu0.dcache.demand_mshr_miss_latency::cpu0.data    801913000                       # number of demand (read+write) MSHR miss cycles
system.cpu0.dcache.demand_mshr_miss_latency::total    801913000                       # number of demand (read+write) MSHR miss cycles
system.cpu0.dcache.overall_mshr_miss_latency::cpu0.data    801913000                       # number of overall MSHR miss cycles
system.cpu0.dcache.overall_mshr_miss_latency::total    801913000                       # number of overall MSHR miss cycles
system.cpu0.dcache.ReadReq_mshr_miss_rate::cpu0.data     0.001166                       # mshr miss rate for ReadReq accesses
system.cpu0.dcache.ReadReq_mshr_miss_rate::total     0.001166                       # mshr miss rate for ReadReq accesses
system.cpu0.dcache.WriteReq_mshr_miss_rate::cpu0.data     0.000580                       # mshr miss rate for WriteReq accesses
[...]
system.l2.WritebackDirty_accesses::writebacks         9701                       # number of WritebackDirty accesses(hits+misses)
system.l2.WritebackDirty_accesses::total         9701                       # number of WritebackDirty accesses(hits+misses)
system.l2.WritebackClean_accesses::writebacks        62411                       # number of WritebackClean accesses(hits+misses)
system.l2.WritebackClean_accesses::total        62411                       # number of WritebackClean accesses(hits+misses)
system.l2.UpgradeReq_accesses::cpu0.data            2                       # number of UpgradeReq accesses(hits+misses)
system.l2.UpgradeReq_accesses::total                2                       # number of UpgradeReq accesses(hits+misses)
system.l2.ReadExReq_accesses::cpu0.data          3529                       # number of ReadExReq accesses(hits+misses)
system.l2.ReadExReq_accesses::total              3529                       # number of ReadExReq accesses(hits+misses)
system.l2.ReadCleanReq_accesses::cpu0.inst        62411                       # number of ReadCleanReq accesses(hits+misses)
system.l2.ReadCleanReq_accesses::total          62411                       # number of ReadCleanReq accesses(hits+misses)
system.l2.ReadSharedReq_accesses::cpu0.data         9724                       # number of ReadSharedReq accesses(hits+misses)
system.l2.ReadSharedReq_accesses::total          9724                       # number of ReadSharedReq accesses(hits+misses)
system.l2.demand_accesses::cpu0.inst            62411                       # number of demand (read+write) accesses
system.l2.demand_accesses::cpu0.data            13253                       # number of demand (read+write) accesses
system.l2.demand_accesses::total                75664                       # number of demand (read+write) accesses
system.l2.overall_accesses::cpu0.inst           62411                       # number of overall (read+write) accesses
system.l2.overall_accesses::cpu0.data           13253                       # number of overall (read+write) accesses
system.l2.overall_accesses::total               75664                       # number of overall (read+write) accesses
system.l2.ReadExReq_miss_rate::cpu0.data     0.907056                       # miss rate for ReadExReq accesses
system.l2.ReadExReq_miss_rate::total         0.907056                       # miss rate for ReadExReq accesses
system.l2.ReadSharedReq_miss_rate::cpu0.data     0.002879                       # miss rate for ReadSharedReq accesses
system.l2.ReadSharedReq_miss_rate::total     0.002879                       # miss rate for ReadSharedReq accesses
system.l2.demand_miss_rate::cpu0.data        0.243643                       # miss rate for demand accesses
system.l2.demand_miss_rate::total            0.042676                       # miss rate for demand accesses
system.l2.overall_miss_rate::cpu0.data       0.243643                       # miss rate for overall accesses
system.l2.overall_miss_rate::total           0.042676                       # miss rate for overall accesses
system.l2.ReadExReq_avg_miss_latency::cpu0.data 209986.566698                       # average ReadExReq miss latency
system.l2.ReadExReq_avg_miss_latency::total 209986.566698                       # average ReadExReq miss latency
system.l2.ReadSharedReq_avg_miss_latency::cpu0.data 142964.285714                       # average ReadSharedReq miss latency
system.l2.ReadSharedReq_avg_miss_latency::total 142964.285714                       # average ReadSharedReq miss latency
system.l2.demand_avg_miss_latency::cpu0.data 209405.388665                       # average overall miss latency
system.l2.demand_avg_miss_latency::total 209405.388665                       # average overall miss latency
system.l2.overall_avg_miss_latency::cpu0.data 209405.388665                       # average overall miss latency
system.l2.overall_avg_miss_latency::total 209405.388665                       # average overall miss latency
system.l2.blocked_cycles::no_mshrs                  0                       # number of cycles access was blocked
system.l2.blocked_cycles::no_targets                0                       # number of cycles access was blocked
system.l2.blocked::no_mshrs                         0                       # number of cycles access was blocked
system.l2.blocked::no_targets                       0                       # number of cycles access was blocked
system.l2.avg_blocked_cycles::no_mshrs            nan                       # average number of cycles each access was blocked
system.l2.avg_blocked_cycles::no_targets          nan                       # average number of cycles each access was blocked
system.l2.ReadExReq_mshr_misses::cpu0.data         3201                       # number of ReadExReq MSHR misses
system.l2.ReadExReq_mshr_misses::total           3201                       # number of ReadExReq MSHR misses
system.l2.ReadSharedReq_mshr_misses::cpu0.data           28                       # number of ReadSharedReq MSHR misses
system.l2.ReadSharedReq_mshr_misses::total           28                       # number of ReadSharedReq MSHR misses
system.l2.demand_mshr_misses::cpu0.data          3229                       # number of demand (read+write) MSHR misses
system.l2.demand_mshr_misses::total              3229                       # number of demand (read+write) MSHR misses
system.l2.overall_mshr_misses::cpu0.data         3229                       # number of overall MSHR misses
system.l2.overall_mshr_misses::total             3229                       # number of overall MSHR misses
system.l2.ReadExReq_mshr_miss_latency::cpu0.data    640157000                       # number of ReadExReq MSHR miss cycles
system.l2.ReadExReq_mshr_miss_latency::total    640157000                       # number of ReadExReq MSHR miss cycles
system.l2.ReadSharedReq_mshr_miss_latency::cpu0.data      3723000                       # number of ReadSharedReq MSHR miss cycles
system.l2.ReadSharedReq_mshr_miss_latency::total      3723000                       # number of ReadSharedReq MSHR miss cycles
system.l2.demand_mshr_miss_latency::cpu0.data    643880000                       # number of demand (read+write) MSHR miss cycles
system.l2.demand_mshr_miss_latency::total    643880000                       # number of demand (read+write) MSHR miss cycles
system.l2.overall_mshr_miss_latency::cpu0.data    643880000                       # number of overall MSHR miss cycles
system.l2.overall_mshr_miss_latency::total    643880000                       # number of overall MSHR miss cycles
system.l2.ReadExReq_mshr_miss_rate::cpu0.data     0.907056                       # mshr miss rate for ReadExReq accesses
system.l2.ReadExReq_mshr_miss_rate::total     0.907056                       # mshr miss rate for ReadExReq accesses
system.l2.ReadSharedReq_mshr_miss_rate::cpu0.data     0.002879                       # mshr miss rate for ReadSharedReq accesses
system.l2.ReadSharedReq_mshr_miss_rate::total     0.002879                       # mshr miss rate for ReadSharedReq accesses
system.l2.demand_mshr_miss_rate::cpu0.data     0.243643                       # mshr miss rate for demand accesses
system.l2.demand_mshr_miss_rate::total       0.042676                       # mshr miss rate for demand accesses
system.l2.overall_mshr_miss_rate::cpu0.data     0.243643                       # mshr miss rate for overall accesses
system.l2.overall_mshr_miss_rate::total      0.042676                       # mshr miss rate for overall accesses
system.l2.ReadExReq_avg_mshr_miss_latency::cpu0.data 199986.566698                       # average ReadExReq mshr miss latency
system.l2.ReadExReq_avg_mshr_miss_latency::total 199986.566698                       # average ReadExReq mshr miss latency
system.l2.ReadSharedReq_avg_mshr_miss_latency::cpu0.data 132964.285714                       # average ReadSharedReq mshr miss latency
system.l2.ReadSharedReq_avg_mshr_miss_latency::total 132964.285714                       # average ReadSharedReq mshr miss latency
system.l2.demand_avg_mshr_miss_latency::cpu0.data 199405.388665                       # average overall mshr miss latency
system.l2.demand_avg_mshr_miss_latency::total 199405.388665                       # average overall mshr miss latency
system.l2.overall_avg_mshr_miss_latency::cpu0.data 199405.388665                       # average overall mshr miss latency
system.l2.overall_avg_mshr_miss_latency::total 199405.388665                       # average overall mshr miss latency
system.membus.snoop_filter.tot_requests          3229                       # Total number of requests made to the snoop filter.
system.membus.snoop_filter.hit_single_requests            0                       # Number of requests hitting in the snoop filter with a single holder of the requested data.
system.membus.snoop_filter.hit_multi_requests            0                       # Number of requests hitting in the snoop filter with multiple (>1) holders of the requested data.
system.membus.snoop_filter.tot_snoops               0                       # Total number of snoops made to the snoop filter.
system.membus.snoop_filter.hit_single_snoops            0                       # Number of snoops hitting in the snoop filter with a single holder of the requested data.
system.membus.snoop_filter.hit_multi_snoops            0                       # Number of snoops hitting in the snoop filter with multiple (>1) holders of the requested data.
system.membus.pwrStateResidencyTicks::UNDEFINED  15267344125                       # Cumulative time (in ticks) in various power states
system.membus.trans_dist::ReadResp                 28                       # Transaction distribution
system.membus.trans_dist::ReadExReq              3201                       # Transaction distribution
system.membus.trans_dist::ReadExResp             3201                       # Transaction distribution
system.membus.trans_dist::ReadSharedReq            28                       # Transaction distribution
system.membus.pkt_count_system.l2.mem_side::system.mem_ctrls.port         6458                       # Packet count per connected master and slave (bytes)
system.membus.pkt_count_system.l2.mem_side::total         6458                       # Packet count per connected master and slave (bytes)
system.membus.pkt_count::total                   6458                       # Packet count per connected master and slave (bytes)
system.membus.pkt_size_system.l2.mem_side::system.mem_ctrls.port       206656                       # Cumulative packet size per connected master and slave (bytes)
system.membus.pkt_size_system.l2.mem_side::total       206656                       # Cumulative packet size per connected master and slave (bytes)
system.membus.pkt_size::total                  206656                       # Cumulative packet size per connected master and slave (bytes)
system.membus.snoops                                0                       # Total snoops (count)
system.membus.snoopTraffic                          0                       # Total snoop traffic (bytes)
system.membus.snoop_fanout::samples              3229                       # Request fanout histogram
system.membus.snoop_fanout::mean                    0                       # Request fanout histogram
system.membus.snoop_fanout::stdev                   0                       # Request fanout histogram
system.membus.snoop_fanout::underflows              0      0.00%      0.00% # Request fanout histogram
system.membus.snoop_fanout::0                    3229    100.00%    100.00% # Request fanout histogram
system.membus.snoop_fanout::1                       0      0.00%    100.00% # Request fanout histogram
system.membus.snoop_fanout::overflows               0      0.00%    100.00% # Request fanout histogram
system.membus.snoop_fanout::min_value               0                       # Request fanout histogram
system.membus.snoop_fanout::max_value               0                       # Request fanout histogram
system.membus.snoop_fanout::total                3229                       # Request fanout histogram
system.membus.reqLayer12.occupancy            4083500                       # Layer occupancy (ticks)
system.membus.reqLayer12.utilization              0.0                       # Layer utilization (%)
system.membus.respLayer1.occupancy           17752000                       # Layer occupancy (ticks)
system.membus.respLayer1.utilization              0.1                       # Layer utilization (%)
system.tol2bus.snoop_filter.tot_requests       151332                       # Total number of requests made to the snoop filter.
system.tol2bus.snoop_filter.hit_single_requests        75664                       # Number of requests hitting in the snoop filter with a single holder of the requested data.
system.tol2bus.snoop_filter.hit_multi_requests            5                       # Number of requests hitting in the snoop filter with multiple (>1) holders of the requested data.
system.tol2bus.snoop_filter.tot_snoops              0                       # Total number of snoops made to the snoop filter.
system.tol2bus.snoop_filter.hit_single_snoops            0                       # Number of snoops hitting in the snoop filter with a single holder of the requested data.
system.tol2bus.snoop_filter.hit_multi_snoops            0                       # Number of snoops hitting in the snoop filter with multiple (>1) holders of the requested data.
system.tol2bus.pwrStateResidencyTicks::UNDEFINED  15267344125                       # Cumulative time (in ticks) in various power states
system.tol2bus.trans_dist::ReadResp             72137                       # Transaction distribution
system.tol2bus.trans_dist::WritebackDirty         9701                       # Transaction distribution
system.tol2bus.trans_dist::WritebackClean        62411                       # Transaction distribution
system.tol2bus.trans_dist::CleanEvict            3552                       # Transaction distribution
system.tol2bus.trans_dist::UpgradeReq               2                       # Transaction distribution
system.tol2bus.trans_dist::UpgradeResp              2                       # Transaction distribution
system.tol2bus.trans_dist::ReadExReq             3529                       # Transaction distribution
system.tol2bus.trans_dist::ReadExResp            3529                       # Transaction distribution
system.tol2bus.trans_dist::ReadCleanReq         62413                       # Transaction distribution
system.tol2bus.trans_dist::ReadSharedReq         9724                       # Transaction distribution
system.tol2bus.pkt_count_system.cpu0.icache.mem_side::system.l2.cpu_side       187235                       # Packet count per connected master and slave (bytes)
system.tol2bus.pkt_count_system.cpu0.dcache.mem_side::system.l2.cpu_side        39763                       # Packet count per connected master and slave (bytes)
system.tol2bus.pkt_count::total                226998                       # Packet count per connected master and slave (bytes)
system.tol2bus.pkt_size_system.cpu0.icache.mem_side::system.l2.cpu_side      7988608                       # Cumulative packet size per connected master and slave (bytes)
system.tol2bus.pkt_size_system.cpu0.dcache.mem_side::system.l2.cpu_side      1469056                       # Cumulative packet size per connected master and slave (bytes)
system.tol2bus.pkt_size::total                9457664                       # Cumulative packet size per connected master and slave (bytes)
system.tol2bus.snoops                               2                       # Total snoops (count)
system.tol2bus.snoopTraffic                       128                       # Total snoop traffic (bytes)
system.tol2bus.snoop_fanout::samples            75668                       # Request fanout histogram
system.tol2bus.snoop_fanout::mean            0.000066                       # Request fanout histogram
system.tol2bus.snoop_fanout::stdev           0.008129                       # Request fanout histogram
system.tol2bus.snoop_fanout::underflows             0      0.00%      0.00% # Request fanout histogram
system.tol2bus.snoop_fanout::0                  75663     99.99%     99.99% # Request fanout histogram
system.tol2bus.snoop_fanout::1                      5      0.01%    100.00% # Request fanout histogram
system.tol2bus.snoop_fanout::2                      0      0.00%    100.00% # Request fanout histogram
system.tol2bus.snoop_fanout::3                      0      0.00%    100.00% # Request fanout histogram
system.tol2bus.snoop_fanout::4                      0      0.00%    100.00% # Request fanout histogram
system.tol2bus.snoop_fanout::5                      0      0.00%    100.00% # Request fanout histogram
system.tol2bus.snoop_fanout::6                      0      0.00%    100.00% # Request fanout histogram
system.tol2bus.snoop_fanout::7                      0      0.00%    100.00% # Request fanout histogram
system.tol2bus.snoop_fanout::8                      0      0.00%    100.00% # Request fanout histogram
system.tol2bus.snoop_fanout::9                      0      0.00%    100.00% # Request fanout histogram
system.tol2bus.snoop_fanout::10                     0      0.00%    100.00% # Request fanout histogram
system.tol2bus.snoop_fanout::11                     0      0.00%    100.00% # Request fanout histogram
system.tol2bus.snoop_fanout::12                     0      0.00%    100.00% # Request fanout histogram
system.tol2bus.snoop_fanout::13                     0      0.00%    100.00% # Request fanout histogram
system.tol2bus.snoop_fanout::14                     0      0.00%    100.00% # Request fanout histogram
system.tol2bus.snoop_fanout::15                     0      0.00%    100.00% # Request fanout histogram
system.tol2bus.snoop_fanout::16                     0      0.00%    100.00% # Request fanout histogram
system.tol2bus.snoop_fanout::17                     0      0.00%    100.00% # Request fanout histogram
system.tol2bus.snoop_fanout::18                     0      0.00%    100.00% # Request fanout histogram
system.tol2bus.snoop_fanout::19                     0      0.00%    100.00% # Request fanout histogram
system.tol2bus.snoop_fanout::20                     0      0.00%    100.00% # Request fanout histogram
system.tol2bus.snoop_fanout::21                     0      0.00%    100.00% # Request fanout histogram
system.tol2bus.snoop_fanout::22                     0      0.00%    100.00% # Request fanout histogram
system.tol2bus.snoop_fanout::23                     0      0.00%    100.00% # Request fanout histogram
system.tol2bus.snoop_fanout::24                     0      0.00%    100.00% # Request fanout histogram
system.tol2bus.snoop_fanout::overflows              0      0.00%    100.00% # Request fanout histogram
system.tol2bus.snoop_fanout::min_value              0                       # Request fanout histogram
system.tol2bus.snoop_fanout::max_value              1                       # Request fanout histogram
system.tol2bus.snoop_fanout::total              75668                       # Request fanout histogram
system.tol2bus.reqLayer0.occupancy          147778000                       # Layer occupancy (ticks)
system.tol2bus.reqLayer0.utilization              1.0                       # Layer utilization (%)
system.tol2bus.respLayer0.occupancy          93622494                       # Layer occupancy (ticks)
system.tol2bus.respLayer0.utilization             0.6                       # Layer utilization (%)
system.tol2bus.respLayer1.occupancy          19884991                       # Layer occupancy (ticks)
system.tol2bus.respLayer1.utilization             0.1                       # Layer utilization (%)

---------- End Simulation Statistics   ----------
