
---------- Begin Simulation Statistics ----------
sim_seconds                                  0.015267                       # Number of seconds simulated
sim_ticks                                 15267344125                       # Number of ticks simulated
final_tick                               7313057835875                       # Number of ticks from beginning of simulation (restored from checkpoints and never reset)
sim_freq                                 1000000000000                       # Frequency of simulated ticks
host_inst_rate                              133148873                       # Simulator instruction rate (inst/s)
host_op_rate                                247686749                       # Simulator op (including micro ops) rate (op/s)
host_tick_rate                              346106364                       # Simulator tick rate (ticks/s)
host_mem_usage                                1248976                       # Number of bytes of host memory used
host_seconds                                    44.11                       # Real time elapsed on the host
sim_insts                                  5873422302                       # Number of instructions simulated
sim_ops                                   10925884431                       # Number of ops (including micro ops) simulated
system.voltage_domain.voltage                       1                       # Voltage in Volts
system.clk_domain.clock                          1000                       # Clock period in ticks
system.mem_ctrls.pwrStateResidencyTicks::UNDEFINED  15267344125                       # Cumulative time (in ticks) in various power states
system.mem_ctrls.bytes_read::cpu0.data       12652224                       # Number of bytes read from this memory
system.mem_ctrls.bytes_read::total           12652224                       # Number of bytes read from this memory
system.mem_ctrls.bytes_written::writebacks        23040                       # Number of bytes written to this memory
system.mem_ctrls.bytes_written::total           23040                       # Number of bytes written to this memory
system.mem_ctrls.num_reads::cpu0.data          197691                       # Number of read requests responded to by this memory
system.mem_ctrls.num_reads::total              197691                       # Number of read requests responded to by this memory
system.mem_ctrls.num_writes::writebacks           360                       # Number of write requests responded to by this memory
system.mem_ctrls.num_writes::total                360                       # Number of write requests responded to by this memory
system.mem_ctrls.bw_read::cpu0.data         828711523                       # Total read bandwidth from this memory (bytes/s)
system.mem_ctrls.bw_read::total             828711523                       # Total read bandwidth from this memory (bytes/s)
system.mem_ctrls.bw_write::writebacks         1509103                       # Write bandwidth from this memory (bytes/s)
system.mem_ctrls.bw_write::total              1509103                       # Write bandwidth from this memory (bytes/s)
system.mem_ctrls.bw_total::writebacks         1509103                       # Total bandwidth to/from this memory (bytes/s)
system.mem_ctrls.bw_total::cpu0.data        828711523                       # Total bandwidth to/from this memory (bytes/s)
system.mem_ctrls.bw_total::total            830220626                       # Total bandwidth to/from this memory (bytes/s)
system.mem_ctrls.readReqs                      197692                       # Number of read requests accepted
system.mem_ctrls.writeReqs                        360                       # Number of write requests accepted
system.mem_ctrls.readBursts                    197692                       # Number of DRAM read bursts, including those serviced by the write queue
system.mem_ctrls.writeBursts                      360                       # Number of DRAM write bursts, including those merged in the write queue
system.mem_ctrls.bytesReadDRAM               12649088                       # Total number of bytes read from DRAM
system.mem_ctrls.bytesReadWrQ                    3200                       # Total number of bytes read from write queue
system.mem_ctrls.bytesWritten                   22528                       # Total number of bytes written to DRAM
system.mem_ctrls.bytesReadSys                12652288                       # Total read bytes from the system interface side
system.mem_ctrls.bytesWrittenSys                23040                       # Total written bytes from the system interface side
system.mem_ctrls.servicedByWrQ                     50                       # Number of DRAM read bursts serviced by the write queue
system.mem_ctrls.mergedWrBursts                     2                       # Number of DRAM write bursts merged with an existing one
system.mem_ctrls.neitherReadNorWriteReqs            0                       # Number of requests that are neither read nor write
system.mem_ctrls.perBankRdBursts::0             12223                       # Per bank write bursts
system.mem_ctrls.perBankRdBursts::1             12418                       # Per bank write bursts
system.mem_ctrls.perBankRdBursts::2             11938                       # Per bank write bursts
system.mem_ctrls.perBankRdBursts::3             12241                       # Per bank write bursts
system.mem_ctrls.perBankRdBursts::4             12239                       # Per bank write bursts
system.mem_ctrls.perBankRdBursts::5             12184                       # Per bank write bursts
system.mem_ctrls.perBankRdBursts::6             12486                       # Per bank write bursts
system.mem_ctrls.perBankRdBursts::7             12246                       # Per bank write bursts
system.mem_ctrls.perBankRdBursts::8             12171                       # Per bank write bursts
system.mem_ctrls.perBankRdBursts::9             12120                       # Per bank write bursts
system.mem_ctrls.perBankRdBursts::10            12184                       # Per bank write bursts
system.mem_ctrls.perBankRdBursts::11            12314                       # Per bank write bursts
system.mem_ctrls.perBankRdBursts::12            12879                       # Per bank write bursts
system.mem_ctrls.perBankRdBursts::13            12955                       # Per bank write bursts
system.mem_ctrls.perBankRdBursts::14            12643                       # Per bank write bursts
system.mem_ctrls.perBankRdBursts::15            12401                       # Per bank write bursts
system.mem_ctrls.perBankWrBursts::0                 0                       # Per bank write bursts
system.mem_ctrls.perBankWrBursts::1                 0                       # Per bank write bursts
system.mem_ctrls.perBankWrBursts::2                 0                       # Per bank write bursts
system.mem_ctrls.perBankWrBursts::3                 0                       # Per bank write bursts
system.mem_ctrls.perBankWrBursts::4                 0                       # Per bank write bursts
system.mem_ctrls.perBankWrBursts::5                 0                       # Per bank write bursts
system.mem_ctrls.perBankWrBursts::6                 0                       # Per bank write bursts
system.mem_ctrls.perBankWrBursts::7                 0                       # Per bank write bursts
system.mem_ctrls.perBankWrBursts::8                 0                       # Per bank write bursts
system.mem_ctrls.perBankWrBursts::9                 0                       # Per bank write bursts
system.mem_ctrls.perBankWrBursts::10               10                       # Per bank write bursts
system.mem_ctrls.perBankWrBursts::11               22                       # Per bank write bursts
system.mem_ctrls.perBankWrBursts::12              112                       # Per bank write bursts
system.mem_ctrls.perBankWrBursts::13               68                       # Per bank write bursts
system.mem_ctrls.perBankWrBursts::14              124                       # Per bank write bursts
system.mem_ctrls.perBankWrBursts::15               16                       # Per bank write bursts
system.mem_ctrls.numRdRetry                         0                       # Number of times read queue was full causing retry
system.mem_ctrls.numWrRetry                         0                       # Number of times write queue was full causing retry
system.mem_ctrls.totGap                   15267416000                       # Total gap between requests
system.mem_ctrls.readPktSize::0                     0                       # Read request sizes (log2)
system.mem_ctrls.readPktSize::1                     0                       # Read request sizes (log2)
system.mem_ctrls.readPktSize::2                     0                       # Read request sizes (log2)
system.mem_ctrls.readPktSize::3                     0                       # Read request sizes (log2)
system.mem_ctrls.readPktSize::4                     0                       # Read request sizes (log2)
system.mem_ctrls.readPktSize::5                     0                       # Read request sizes (log2)
system.mem_ctrls.readPktSize::6                197692                       # Read request sizes (log2)
system.mem_ctrls.writePktSize::0                    0                       # Write request sizes (log2)
system.mem_ctrls.writePktSize::1                    0                       # Write request sizes (log2)
system.mem_ctrls.writePktSize::2                    0                       # Write request sizes (log2)
system.mem_ctrls.writePktSize::3                    0                       # Write request sizes (log2)
system.mem_ctrls.writePktSize::4                    0                       # Write request sizes (log2)
system.mem_ctrls.writePktSize::5                    0                       # Write request sizes (log2)
system.mem_ctrls.writePktSize::6                  360                       # Write request sizes (log2)
system.mem_ctrls.rdQLenPdf::0                  148865                       # What read queue length does an incoming req see
system.mem_ctrls.rdQLenPdf::1                   45535                       # What read queue length does an incoming req see
system.mem_ctrls.rdQLenPdf::2                    3202                       # What read queue length does an incoming req see
system.mem_ctrls.rdQLenPdf::3                      40                       # What read queue length does an incoming req see
system.mem_ctrls.rdQLenPdf::4                       0                       # What read queue length does an incoming req see
system.mem_ctrls.rdQLenPdf::5                       0                       # What read queue length does an incoming req see
system.mem_ctrls.rdQLenPdf::6                       0                       # What read queue length does an incoming req see
system.mem_ctrls.rdQLenPdf::7                       0                       # What read queue length does an incoming req see
system.mem_ctrls.rdQLenPdf::8                       0                       # What read queue length does an incoming req see
system.mem_ctrls.rdQLenPdf::9                       0                       # What read queue length does an incoming req see
system.mem_ctrls.rdQLenPdf::10                      0                       # What read queue length does an incoming req see
system.mem_ctrls.rdQLenPdf::11                      0                       # What read queue length does an incoming req see
system.mem_ctrls.rdQLenPdf::12                      0                       # What read queue length does an incoming req see
system.mem_ctrls.rdQLenPdf::13                      0                       # What read queue length does an incoming req see
system.mem_ctrls.rdQLenPdf::14                      0                       # What read queue length does an incoming req see
system.mem_ctrls.rdQLenPdf::15                      0                       # What read queue length does an incoming req see
system.mem_ctrls.rdQLenPdf::16                      0                       # What read queue length does an incoming req see
system.mem_ctrls.rdQLenPdf::17                      0                       # What read queue length does an incoming req see
system.mem_ctrls.rdQLenPdf::18                      0                       # What read queue length does an incoming req see
system.mem_ctrls.rdQLenPdf::19                      0                       # What read queue length does an incoming req see
system.mem_ctrls.rdQLenPdf::20                      0                       # What read queue length does an incoming req see
system.mem_ctrls.rdQLenPdf::21                      0                       # What read queue length does an incoming req see
system.mem_ctrls.rdQLenPdf::22                      0                       # What read queue length does an incoming req see
system.mem_ctrls.rdQLenPdf::23                      0                       # What read queue length does an incoming req see
system.mem_ctrls.rdQLenPdf::24                      0                       # What read queue length does an incoming req see
system.mem_ctrls.rdQLenPdf::25                      0                       # What read queue length does an incoming req see
system.mem_ctrls.rdQLenPdf::26                      0                       # What read queue length does an incoming req see
system.mem_ctrls.rdQLenPdf::27                      0                       # What read queue length does an incoming req see
system.mem_ctrls.rdQLenPdf::28                      0                       # What read queue length does an incoming req see
system.mem_ctrls.rdQLenPdf::29                      0                       # What read queue length does an incoming req see
system.mem_ctrls.rdQLenPdf::30                      0                       # What read queue length does an incoming req see
system.mem_ctrls.rdQLenPdf::31                      0                       # What read queue length does an incoming req see
system.mem_ctrls.wrQLenPdf::0                       0                       # What write queue length does an incoming req see
system.mem_ctrls.wrQLenPdf::1                       0                       # What write queue length does an incoming req see
system.mem_ctrls.wrQLenPdf::2                       0                       # What write queue length does an incoming req see
system.mem_ctrls.wrQLenPdf::3                       0                       # What write queue length does an incoming req see
system.mem_ctrls.wrQLenPdf::4                       0                       # What write queue length does an incoming req see
system.mem_ctrls.wrQLenPdf::5                       0                       # What write queue length does an incoming req see
system.mem_ctrls.wrQLenPdf::6                       0                       # What write queue length does an incoming req see
system.mem_ctrls.wrQLenPdf::7                       0                       # What write queue length does an incoming req see
system.mem_ctrls.wrQLenPdf::8                       0                       # What write queue length does an incoming req see
system.mem_ctrls.wrQLenPdf::9                       0                       # What write queue length does an incoming req see
system.mem_ctrls.wrQLenPdf::10                      0                       # What write queue length does an incoming req see
system.mem_ctrls.wrQLenPdf::11                      0                       # What write queue length does an incoming req see
system.mem_ctrls.wrQLenPdf::12                      0                       # What write queue length does an incoming req see
system.mem_ctrls.wrQLenPdf::13                      0                       # What write queue length does an incoming req see
system.mem_ctrls.wrQLenPdf::14                      0                       # What write queue length does an incoming req see
system.mem_ctrls.wrQLenPdf::15                      0                       # What write queue length does an incoming req see
system.mem_ctrls.wrQLenPdf::16                      0                       # What write queue length does an incoming req see
system.mem_ctrls.wrQLenPdf::17                     22                       # What write queue length does an incoming req see
system.mem_ctrls.wrQLenPdf::18                     22                       # What write queue length does an incoming req see
system.mem_ctrls.wrQLenPdf::19                     22                       # What write queue length does an incoming req see
system.mem_ctrls.wrQLenPdf::20                     22                       # What write queue length does an incoming req see
system.mem_ctrls.wrQLenPdf::21                     22                       # What write queue length does an incoming req see
system.mem_ctrls.wrQLenPdf::22                     22                       # What write queue length does an incoming req see
system.mem_ctrls.wrQLenPdf::23                     22                       # What write queue length does an incoming req see
system.mem_ctrls.wrQLenPdf::24                     23                       # What write queue length does an incoming req see
system.mem_ctrls.wrQLenPdf::25                     23                       # What write queue length does an incoming req see
system.mem_ctrls.wrQLenPdf::26                     23                       # What write queue length does an incoming req see
system.mem_ctrls.wrQLenPdf::27                     23                       # What write queue length does an incoming req see
system.mem_ctrls.wrQLenPdf::28                     23                       # What write queue length does an incoming req see
system.mem_ctrls.wrQLenPdf::29                     23                       # What write queue length does an incoming req see
system.mem_ctrls.wrQLenPdf::30                     22                       # What write queue length does an incoming req see
system.mem_ctrls.wrQLenPdf::31                     22                       # What write queue length does an incoming req see
system.mem_ctrls.wrQLenPdf::32                     22                       # What write queue length does an incoming req see
system.mem_ctrls.wrQLenPdf::33                      0                       # What write queue length does an incoming req see
system.mem_ctrls.wrQLenPdf::34                      0                       # What write queue length does an incoming req see
system.mem_ctrls.wrQLenPdf::35                      0                       # What write queue length does an incoming req see
system.mem_ctrls.wrQLenPdf::36                      0                       # What write queue length does an incoming req see
system.mem_ctrls.wrQLenPdf::37                      0                       # What write queue length does an incoming req see
system.mem_ctrls.wrQLenPdf::38                      0                       # What write queue length does an incoming req see
system.mem_ctrls.wrQLenPdf::39                      0                       # What write queue length does an incoming req see
system.mem_ctrls.wrQLenPdf::40                      0                       # What write queue length does an incoming req see
system.mem_ctrls.wrQLenPdf::41                      0                       # What write queue length does an incoming req see
system.mem_ctrls.wrQLenPdf::42                      0                       # What write queue length does an incoming req see
system.mem_ctrls.wrQLenPdf::43                      0                       # What write queue length does an incoming req see
system.mem_ctrls.wrQLenPdf::44                      0                       # What write queue length does an incoming req see
system.mem_ctrls.wrQLenPdf::45                      0                       # What write queue length does an incoming req see
system.mem_ctrls.wrQLenPdf::46                      0                       # What write queue length does an incoming req see
system.mem_ctrls.wrQLenPdf::47                      0                       # What write queue length does an incoming req see
system.mem_ctrls.wrQLenPdf::48                      0                       # What write queue length does an incoming req see
system.mem_ctrls.wrQLenPdf::49                      0                       # What write queue length does an incoming req see
system.mem_ctrls.wrQLenPdf::50                      0                       # What write queue length does an incoming req see
system.mem_ctrls.wrQLenPdf::51                      0                       # What write queue length does an incoming req see
system.mem_ctrls.wrQLenPdf::52                      0                       # What write queue length does an incoming req see
system.mem_ctrls.wrQLenPdf::53                      0                       # What write queue length does an incoming req see
system.mem_ctrls.wrQLenPdf::54                      0                       # What write queue length does an incoming req see
system.mem_ctrls.wrQLenPdf::55                      0                       # What write queue length does an incoming req see
system.mem_ctrls.wrQLenPdf::56                      0                       # What write queue length does an incoming req see
system.mem_ctrls.wrQLenPdf::57                      0                       # What write queue length does an incoming req see
system.mem_ctrls.wrQLenPdf::58                      0                       # What write queue length does an incoming req see
system.mem_ctrls.wrQLenPdf::59                      0                       # What write queue length does an incoming req see
system.mem_ctrls.wrQLenPdf::60                      0                       # What write queue length does an incoming req see
system.mem_ctrls.wrQLenPdf::61                      0                       # What write queue length does an incoming req see
system.mem_ctrls.wrQLenPdf::62                      0                       # What write queue length does an incoming req see
system.mem_ctrls.wrQLenPdf::63                      0                       # What write queue length does an incoming req see
system.mem_ctrls.bytesPerActivate::samples        97333                       # Bytes accessed per row activation
system.mem_ctrls.bytesPerActivate::mean    130.187624                       # Bytes accessed per row activation
system.mem_ctrls.bytesPerActivate::gmean   111.854562                       # Bytes accessed per row activation
system.mem_ctrls.bytesPerActivate::stdev    77.666141                       # Bytes accessed per row activation
system.mem_ctrls.bytesPerActivate::0-127        40850     41.97%     41.97% # Bytes accessed per row activation
system.mem_ctrls.bytesPerActivate::128-255        45039     46.27%     88.24% # Bytes accessed per row activation
system.mem_ctrls.bytesPerActivate::256-383         9899     10.17%     98.41% # Bytes accessed per row activation
system.mem_ctrls.bytesPerActivate::384-511         1377      1.41%     99.83% # Bytes accessed per row activation
system.mem_ctrls.bytesPerActivate::512-639          140      0.14%     99.97% # Bytes accessed per row activation
system.mem_ctrls.bytesPerActivate::640-767            9      0.01%     99.98% # Bytes accessed per row activation
system.mem_ctrls.bytesPerActivate::768-895            6      0.01%     99.99% # Bytes accessed per row activation
system.mem_ctrls.bytesPerActivate::896-1023            2      0.00%     99.99% # Bytes accessed per row activation
system.mem_ctrls.bytesPerActivate::1024-1151           11      0.01%    100.00% # Bytes accessed per row activation
system.mem_ctrls.bytesPerActivate::total        97333                       # Bytes accessed per row activation
system.mem_ctrls.rdPerTurnAround::samples           22                       # Reads before turning the bus around for writes
system.mem_ctrls.rdPerTurnAround::mean    8762.272727                       # Reads before turning the bus around for writes
system.mem_ctrls.rdPerTurnAround::gmean   8635.018688                       # Reads before turning the bus around for writes
system.mem_ctrls.rdPerTurnAround::stdev   1545.134766                       # Reads before turning the bus around for writes
system.mem_ctrls.rdPerTurnAround::6144-6655            1      4.55%      4.55% # Reads before turning the bus around for writes
system.mem_ctrls.rdPerTurnAround::6656-7167            3     13.64%     18.18% # Reads before turning the bus around for writes
system.mem_ctrls.rdPerTurnAround::7168-7679            2      9.09%     27.27% # Reads before turning the bus around for writes
system.mem_ctrls.rdPerTurnAround::7680-8191            4     18.18%     45.45% # Reads before turning the bus around for writes
system.mem_ctrls.rdPerTurnAround::8704-9215            3     13.64%     59.09% # Reads before turning the bus around for writes
system.mem_ctrls.rdPerTurnAround::9216-9727            4     18.18%     77.27% # Reads before turning the bus around for writes
system.mem_ctrls.rdPerTurnAround::9728-10239            2      9.09%     86.36% # Reads before turning the bus around for writes
system.mem_ctrls.rdPerTurnAround::10240-10751            1      4.55%     90.91% # Reads before turning the bus around for writes
system.mem_ctrls.rdPerTurnAround::11264-11775            1      4.55%     95.45% # Reads before turning the bus around for writes
system.mem_ctrls.rdPerTurnAround::11776-12287            1      4.55%    100.00% # Reads before turning the bus around for writes
system.mem_ctrls.rdPerTurnAround::total            22                       # Reads before turning the bus around for writes
system.mem_ctrls.wrPerTurnAround::samples           22                       # Writes before turning the bus around for reads
system.mem_ctrls.wrPerTurnAround::mean             16                       # Writes before turning the bus around for reads
system.mem_ctrls.wrPerTurnAround::gmean     16.000000                       # Writes before turning the bus around for reads
system.mem_ctrls.wrPerTurnAround::16               22    100.00%    100.00% # Writes before turning the bus around for reads
system.mem_ctrls.wrPerTurnAround::total            22                       # Writes before turning the bus around for reads
system.mem_ctrls.totQLat                   4716229500                       # Total ticks spent queuing
system.mem_ctrls.totMemAccLat              8422017000                       # Total ticks spent from burst creation until serviced by the DRAM
system.mem_ctrls.totBusLat                  988210000                       # Total ticks spent in databus transfers
system.mem_ctrls.avgQLat                     23862.49                       # Average queueing delay per DRAM burst
system.mem_ctrls.avgBusLat                    5000.00                       # Average bus latency per DRAM burst
system.mem_ctrls.avgMemAccLat                42612.49                       # Average memory access latency per DRAM burst
system.mem_ctrls.avgRdBW                       828.51                       # Average DRAM read bandwidth in MiByte/s
system.mem_ctrls.avgWrBW                         1.48                       # Average achieved write bandwidth in MiByte/s
system.mem_ctrls.avgRdBWSys                    828.72                       # Average system read bandwidth in MiByte/s
system.mem_ctrls.avgWrBWSys                      1.51                       # Average system write bandwidth in MiByte/s
system.mem_ctrls.peakBW                      12800.00                       # Theoretical peak bandwidth in MiByte/s
system.mem_ctrls.busUtil                         6.48                       # Data bus utilization in percentage
system.mem_ctrls.busUtilRead                     6.47                       # Data bus utilization in percentage for reads
system.mem_ctrls.busUtilWrite                    0.01                       # Data bus utilization in percentage for writes
system.mem_ctrls.avgRdQLen                       1.32                       # Average read queue length when enqueuing
system.mem_ctrls.avgWrQLen                      25.18                       # Average write queue length when enqueuing
system.mem_ctrls.readRowHits                   100349                       # Number of row buffer hits during reads
system.mem_ctrls.writeRowHits                     312                       # Number of row buffer hits during writes
system.mem_ctrls.readRowHitRate                 50.77                       # Row buffer hit rate for reads
system.mem_ctrls.writeRowHitRate                87.15                       # Row buffer hit rate for writes
system.mem_ctrls.avgGap                      77087.92                       # Average gap between requests
system.mem_ctrls.pageHitRate                    50.84                       # Row buffer hit rate, read and write combined
system.mem_ctrls_0.actEnergy                344369340                       # Energy for activate commands per rank (pJ)
system.mem_ctrls_0.preEnergy                183040440                       # Energy for precharge commands per rank (pJ)
system.mem_ctrls_0.readEnergy               699534360                       # Energy for read commands per rank (pJ)
system.mem_ctrls_0.writeEnergy                      0                       # Energy for write commands per rank (pJ)
system.mem_ctrls_0.refreshEnergy         1205309040.000000                       # Energy for refresh commands per rank (pJ)
system.mem_ctrls_0.actBackEnergy           1625836080                       # Energy for active background per rank (pJ)
system.mem_ctrls_0.preBackEnergy             24632640                       # Energy for precharge background per rank (pJ)
system.mem_ctrls_0.actPowerDownEnergy      5145795840                       # Energy for active power-down per rank (pJ)
system.mem_ctrls_0.prePowerDownEnergy       135600480                       # Energy for precharge power-down per rank (pJ)
system.mem_ctrls_0.selfRefreshEnergy                0                       # Energy for self refresh per rank (pJ)
system.mem_ctrls_0.totalEnergy             9364118220                       # Total energy per rank (pJ)
system.mem_ctrls_0.averagePower            613.342972                       # Core power per rank (mW)
system.mem_ctrls_0.totalIdleTime          11638026500                       # Total Idle time Per DRAM Rank
system.mem_ctrls_0.memoryStateTime::IDLE      9972000                       # Time in different power states
system.mem_ctrls_0.memoryStateTime::REF     509860000                       # Time in different power states
system.mem_ctrls_0.memoryStateTime::SREF            0                       # Time in different power states
system.mem_ctrls_0.memoryStateTime::PRE_PDN    352894000                       # Time in different power states
system.mem_ctrls_0.memoryStateTime::ACT    3109485625                       # Time in different power states
system.mem_ctrls_0.memoryStateTime::ACT_PDN  11285132500                       # Time in different power states
system.mem_ctrls_1.actEnergy                350581140                       # Energy for activate commands per rank (pJ)
system.mem_ctrls_1.preEnergy                186338295                       # Energy for precharge commands per rank (pJ)
system.mem_ctrls_1.readEnergy               711622380                       # Energy for read commands per rank (pJ)
system.mem_ctrls_1.writeEnergy                1837440                       # Energy for write commands per rank (pJ)
system.mem_ctrls_1.refreshEnergy         1205309040.000000                       # Energy for refresh commands per rank (pJ)
system.mem_ctrls_1.actBackEnergy           1652807910                       # Energy for active background per rank (pJ)
system.mem_ctrls_1.preBackEnergy             24090240                       # Energy for precharge background per rank (pJ)
system.mem_ctrls_1.actPowerDownEnergy      5111692740                       # Energy for active power-down per rank (pJ)
system.mem_ctrls_1.prePowerDownEnergy       142148160                       # Energy for precharge power-down per rank (pJ)
system.mem_ctrls_1.selfRefreshEnergy                0                       # Energy for self refresh per rank (pJ)
system.mem_ctrls_1.totalEnergy             9386427345                       # Total energy per rank (pJ)
system.mem_ctrls_1.averagePower            614.804204                       # Core power per rank (mW)
system.mem_ctrls_1.totalIdleTime          11579744250                       # Total Idle time Per DRAM Rank
system.mem_ctrls_1.memoryStateTime::IDLE      9478750                       # Time in different power states
system.mem_ctrls_1.memoryStateTime::REF     509860000                       # Time in different power states
system.mem_ctrls_1.memoryStateTime::SREF            0                       # Time in different power states
system.mem_ctrls_1.memoryStateTime::PRE_PDN    370516750                       # Time in different power states
system.mem_ctrls_1.memoryStateTime::ACT    3168004500                       # Time in different power states
system.mem_ctrls_1.memoryStateTime::ACT_PDN  11209484125                       # Time in different power states
system.pwrStateResidencyTicks::UNDEFINED  15267344125                       # Cumulative time (in ticks) in various power states
system.cpu0.branchPred.lookups                1479949                       # Number of BP lookups
system.cpu0.branchPred.condPredicted          1479949                       # Number of conditional branches predicted
system.cpu0.branchPred.condIncorrect            57708                       # Number of conditional branches incorrect
system.cpu0.branchPred.BTBLookups             1147328                       # Number of BTB lookups
system.cpu0.branchPred.BTBHits                      0                       # Number of BTB hits
system.cpu0.branchPred.BTBCorrect                   0                       # Number of correct BTB predictions (this stat may not work properly.
system.cpu0.branchPred.BTBHitPct             0.000000                       # BTB Hit Percentage
system.cpu0.branchPred.usedRAS                  36734                       # Number of times the RAS was used to get a target.
system.cpu0.branchPred.RASInCorrect              4517                       # Number of incorrect RAS predictions.
system.cpu0.branchPred.indirectLookups        1147328                       # Number of indirect predictor lookups.
system.cpu0.branchPred.indirectHits            636508                       # Number of indirect target hits.
system.cpu0.branchPred.indirectMisses          510820                       # Number of indirect misses.
system.cpu0.branchPredindirectMispredicted        19127                       # Number of mispredicted indirect branches.
system.cpu_voltage_domain.voltage                   1                       # Voltage in Volts
system.cpu_clk_domain.clock                       500                       # Clock period in ticks
system.cpu0.dtb.walker.pwrStateResidencyTicks::UNDEFINED  15267344125                       # Cumulative time (in ticks) in various power states
system.cpu0.dtb.rdAccesses                     685700                       # TLB accesses on read requests
system.cpu0.dtb.wrAccesses                      42777                       # TLB accesses on write requests
system.cpu0.dtb.rdMisses                       144554                       # TLB misses on read requests
system.cpu0.dtb.wrMisses                          752                       # TLB misses on write requests
system.cpu0.apic_clk_domain.clock                8000                       # Clock period in ticks
system.cpu0.interrupts.pwrStateResidencyTicks::UNDEFINED  15267344125                       # Cumulative time (in ticks) in various power states
system.cpu0.itb.walker.pwrStateResidencyTicks::UNDEFINED  15267344125                       # Cumulative time (in ticks) in various power states
system.cpu0.itb.rdAccesses                          0                       # TLB accesses on read requests
system.cpu0.itb.wrAccesses                    1244554                       # TLB accesses on write requests
system.cpu0.itb.rdMisses                            0                       # TLB misses on read requests
system.cpu0.itb.wrMisses                         2944                       # TLB misses on write requests
system.cpu0.workload.numSyscalls                    0                       # Number of system calls
system.cpu0.pwrStateResidencyTicks::ON    15267344125                       # Cumulative time (in ticks) in various power states
system.cpu0.numCycles                        30534688                       # number of cpu cycles simulated
system.cpu0.numWorkItemsStarted                     0                       # number of work items this cpu started
system.cpu0.numWorkItemsCompleted                   0                       # number of work items this cpu completed
system.cpu0.fetch.icacheStallCycles           1271199                       # Number of cycles fetch is stalled on an Icache miss
system.cpu0.fetch.Insts                       4255201                       # Number of instructions fetch has processed
system.cpu0.fetch.Branches                    1479949                       # Number of branches that fetch encountered
system.cpu0.fetch.predictedBranches            673242                       # Number of branches that fetch has predicted taken
system.cpu0.fetch.Cycles                     29140598                       # Number of cycles fetch has run and was not squashing or blocked
system.cpu0.fetch.SquashCycles                 117190                       # Number of cycles fetch has spent squashing
system.cpu0.fetch.TlbCycles                      1043                       # Number of cycles fetch has spent waiting for tlb
system.cpu0.fetch.MiscStallCycles                 576                       # Number of cycles fetch has spent waiting on interrupts, or bad addresses, or out of MSHRs
system.cpu0.fetch.PendingTrapStallCycles        26449                       # Number of stall cycles due to pending traps
system.cpu0.fetch.CacheLines                  1241610                       # Number of cache lines fetched
system.cpu0.fetch.IcacheSquashes                 6504                       # Number of outstanding Icache misses that were squashed
system.cpu0.fetch.ItlbSquashes                      2                       # Number of outstanding ITLB misses that were squashed
system.cpu0.fetch.rateDist::samples          30498460                       # Number of instructions fetched each cycle (Total)
system.cpu0.fetch.rateDist::mean             0.280290                       # Number of instructions fetched each cycle (Total)
system.cpu0.fetch.rateDist::stdev            1.333223                       # Number of instructions fetched each cycle (Total)
system.cpu0.fetch.rateDist::underflows              0      0.00%      0.00% # Number of instructions fetched each cycle (Total)
system.cpu0.fetch.rateDist::0                28826271     94.52%     94.52% # Number of instructions fetched each cycle (Total)
system.cpu0.fetch.rateDist::1                   19992      0.07%     94.58% # Number of instructions fetched each cycle (Total)
system.cpu0.fetch.rateDist::2                  627542      2.06%     96.64% # Number of instructions fetched each cycle (Total)
system.cpu0.fetch.rateDist::3                   22177      0.07%     96.71% # Number of instructions fetched each cycle (Total)
system.cpu0.fetch.rateDist::4                  120575      0.40%     97.11% # Number of instructions fetched each cycle (Total)
system.cpu0.fetch.rateDist::5                   51697      0.17%     97.28% # Number of instructions fetched each cycle (Total)
system.cpu0.fetch.rateDist::6                   78285      0.26%     97.53% # Number of instructions fetched each cycle (Total)
system.cpu0.fetch.rateDist::7                   19068      0.06%     97.60% # Number of instructions fetched each cycle (Total)
system.cpu0.fetch.rateDist::8                  732853      2.40%    100.00% # Number of instructions fetched each cycle (Total)
system.cpu0.fetch.rateDist::overflows               0      0.00%    100.00% # Number of instructions fetched each cycle (Total)
system.cpu0.fetch.rateDist::min_value               0                       # Number of instructions fetched each cycle (Total)
system.cpu0.fetch.rateDist::max_value               8                       # Number of instructions fetched each cycle (Total)
system.cpu0.fetch.rateDist::total            30498460                       # Number of instructions fetched each cycle (Total)
system.cpu0.fetch.branchRate                 0.048468                       # Number of branch fetches per cycle
system.cpu0.fetch.rate                       0.139356                       # Number of inst fetches per cycle
system.cpu0.decode.IdleCycles                  612598                       # Number of cycles decode is idle
system.cpu0.decode.BlockedCycles             28742300                       # Number of cycles decode is blocked
system.cpu0.decode.RunCycles                   789150                       # Number of cycles decode is running
system.cpu0.decode.UnblockCycles               295817                       # Number of cycles decode is unblocking
system.cpu0.decode.SquashCycles                 58595                       # Number of cycles decode is squashing
system.cpu0.decode.DecodedInsts               7033448                       # Number of instructions handled by decode
system.cpu0.rename.SquashCycles                 58595                       # Number of cycles rename is squashing
system.cpu0.rename.IdleCycles                  697803                       # Number of cycles rename is idle
system.cpu0.rename.BlockCycles               27580141                       # Number of cycles rename is blocking
system.cpu0.rename.serializeStallCycles         24161                       # count of cycles rename stalled for serializing inst
system.cpu0.rename.RunCycles                   923816                       # Number of cycles rename is running
system.cpu0.rename.UnblockCycles              1213944                       # Number of cycles rename is unblocking
system.cpu0.rename.RenamedInsts               6762463                       # Number of instructions processed by rename
system.cpu0.rename.ROBFullEvents                48514                       # Number of times rename has blocked due to ROB full
system.cpu0.rename.IQFullEvents                987207                       # Number of times rename has blocked due to IQ full
system.cpu0.rename.LQFullEvents                172664                       # Number of times rename has blocked due to LQ full
system.cpu0.rename.SQFullEvents                   400                       # Number of times rename has blocked due to SQ full
system.cpu0.rename.RenamedOperands            8076831                       # Number of destination operands rename has renamed
system.cpu0.rename.RenameLookups             18901278                       # Number of register rename lookups that rename has made
system.cpu0.rename.int_rename_lookups         8823926                       # Number of integer rename lookups
system.cpu0.rename.fp_rename_lookups            31837                       # Number of floating rename lookups
system.cpu0.rename.CommittedMaps              2882413                       # Number of HB maps that are committed
system.cpu0.rename.UndoneMaps                 5194436                       # Number of HB maps that are undone due to squashing
system.cpu0.rename.serializingInsts               183                       # count of serializing insts renamed
system.cpu0.rename.tempSerializingInsts           220                       # count of temporary serializing insts renamed
system.cpu0.rename.skidInsts                  1885671                       # count of insts added to the skid buffer
system.cpu0.memDep0.insertedLoads             1229985                       # Number of loads inserted to the mem dependence unit.
system.cpu0.memDep0.insertedStores              61799                       # Number of stores inserted to the mem dependence unit.
system.cpu0.memDep0.conflictingLoads             2897                       # Number of conflicting loads.
system.cpu0.memDep0.conflictingStores            3384                       # Number of conflicting stores.
system.cpu0.iq.iqInstsAdded                   6438045                       # Number of instructions added to the IQ (excludes non-spec)
system.cpu0.iq.iqNonSpecInstsAdded               3501                       # Number of non-speculative instructions added to the IQ
system.cpu0.iq.iqInstsIssued                  4575377                       # Number of instructions issued
system.cpu0.iq.iqSquashedInstsIssued             5284                       # Number of squashed instructions issued
system.cpu0.iq.iqSquashedInstsExamined        4040521                       # Number of squashed instructions iterated over during squash; mainly for profiling
system.cpu0.iq.iqSquashedOperandsExamined      8611976                       # Number of squashed operands that are examined and possibly removed from graph
system.cpu0.iq.iqSquashedNonSpecRemoved          3501                       # Number of squashed non-spec instructions that were removed
system.cpu0.iq.issued_per_cycle::samples     30498460                       # Number of insts issued each cycle
system.cpu0.iq.issued_per_cycle::mean        0.150020                       # Number of insts issued each cycle
system.cpu0.iq.issued_per_cycle::stdev       0.702387                       # Number of insts issued each cycle
system.cpu0.iq.issued_per_cycle::underflows            0      0.00%      0.00% # Number of insts issued each cycle
system.cpu0.iq.issued_per_cycle::0           28592122     93.75%     93.75% # Number of insts issued each cycle
system.cpu0.iq.issued_per_cycle::1             770640      2.53%     96.28% # Number of insts issued each cycle
system.cpu0.iq.issued_per_cycle::2             404214      1.33%     97.60% # Number of insts issued each cycle
system.cpu0.iq.issued_per_cycle::3             270310      0.89%     98.49% # Number of insts issued each cycle
system.cpu0.iq.issued_per_cycle::4             281022      0.92%     99.41% # Number of insts issued each cycle
system.cpu0.iq.issued_per_cycle::5              75868      0.25%     99.66% # Number of insts issued each cycle
system.cpu0.iq.issued_per_cycle::6              65013      0.21%     99.87% # Number of insts issued each cycle
system.cpu0.iq.issued_per_cycle::7              22295      0.07%     99.94% # Number of insts issued each cycle
system.cpu0.iq.issued_per_cycle::8              16976      0.06%    100.00% # Number of insts issued each cycle
system.cpu0.iq.issued_per_cycle::overflows            0      0.00%    100.00% # Number of insts issued each cycle
system.cpu0.iq.issued_per_cycle::min_value            0                       # Number of insts issued each cycle
system.cpu0.iq.issued_per_cycle::max_value            8                       # Number of insts issued each cycle
system.cpu0.iq.issued_per_cycle::total       30498460                       # Number of insts issued each cycle
system.cpu0.iq.fu_full::No_OpClass                  0      0.00%      0.00% # attempts to use FU when none available
system.cpu0.iq.fu_full::IntAlu                   8923     65.69%     65.69% # attempts to use FU when none available
system.cpu0.iq.fu_full::IntMult                     0      0.00%     65.69% # attempts to use FU when none available
system.cpu0.iq.fu_full::IntDiv                      0      0.00%     65.69% # attempts to use FU when none available
system.cpu0.iq.fu_full::FloatAdd                  938      6.91%     72.59% # attempts to use FU when none available
system.cpu0.iq.fu_full::FloatCmp                    0      0.00%     72.59% # attempts to use FU when none available
system.cpu0.iq.fu_full::FloatCvt                    0      0.00%     72.59% # attempts to use FU when none available
system.cpu0.iq.fu_full::FloatMult                   0      0.00%     72.59% # attempts to use FU when none available
system.cpu0.iq.fu_full::FloatMultAcc                0      0.00%     72.59% # attempts to use FU when none available
system.cpu0.iq.fu_full::FloatDiv                    0      0.00%     72.59% # attempts to use FU when none available
system.cpu0.iq.fu_full::FloatMisc                   0      0.00%     72.59% # attempts to use FU when none available
system.cpu0.iq.fu_full::FloatSqrt                   0      0.00%     72.59% # attempts to use FU when none available
system.cpu0.iq.fu_full::SimdAdd                     0      0.00%     72.59% # attempts to use FU when none available
system.cpu0.iq.fu_full::SimdAddAcc                  0      0.00%     72.59% # attempts to use FU when none available
system.cpu0.iq.fu_full::SimdAlu                     0      0.00%     72.59% # attempts to use FU when none available
system.cpu0.iq.fu_full::SimdCmp                     0      0.00%     72.59% # attempts to use FU when none available
system.cpu0.iq.fu_full::SimdCvt                     0      0.00%     72.59% # attempts to use FU when none available
system.cpu0.iq.fu_full::SimdMisc                    0      0.00%     72.59% # attempts to use FU when none available
system.cpu0.iq.fu_full::SimdMult                    0      0.00%     72.59% # attempts to use FU when none available
system.cpu0.iq.fu_full::SimdMultAcc                 0      0.00%     72.59% # attempts to use FU when none available
system.cpu0.iq.fu_full::SimdShift                   0      0.00%     72.59% # attempts to use FU when none available
system.cpu0.iq.fu_full::SimdShiftAcc                0      0.00%     72.59% # attempts to use FU when none available
system.cpu0.iq.fu_full::SimdSqrt                    0      0.00%     72.59% # attempts to use FU when none available
system.cpu0.iq.fu_full::SimdFloatAdd                0      0.00%     72.59% # attempts to use FU when none available
system.cpu0.iq.fu_full::SimdFloatAlu                0      0.00%     72.59% # attempts to use FU when none available
system.cpu0.iq.fu_full::SimdFloatCmp                0      0.00%     72.59% # attempts to use FU when none available
system.cpu0.iq.fu_full::SimdFloatCvt                0      0.00%     72.59% # attempts to use FU when none available
system.cpu0.iq.fu_full::SimdFloatDiv                0      0.00%     72.59% # attempts to use FU when none available
system.cpu0.iq.fu_full::SimdFloatMisc               0      0.00%     72.59% # attempts to use FU when none available
system.cpu0.iq.fu_full::SimdFloatMult               0      0.00%     72.59% # attempts to use FU when none available
system.cpu0.iq.fu_full::SimdFloatMultAcc            0      0.00%     72.59% # attempts to use FU when none available
system.cpu0.iq.fu_full::SimdFloatSqrt               0      0.00%     72.59% # attempts to use FU when none available
system.cpu0.iq.fu_full::MemRead                  3351     24.67%     97.26% # attempts to use FU when none available
system.cpu0.iq.fu_full::MemWrite                  204      1.50%     98.76% # attempts to use FU when none available
system.cpu0.iq.fu_full::FloatMemRead               96      0.71%     99.47% # attempts to use FU when none available
system.cpu0.iq.fu_full::FloatMemWrite              72      0.53%    100.00% # attempts to use FU when none available
system.cpu0.iq.fu_full::IprAccess                   0      0.00%    100.00% # attempts to use FU when none available
system.cpu0.iq.fu_full::InstPrefetch                0      0.00%    100.00% # attempts to use FU when none available
system.cpu0.iq.FU_type_0::No_OpClass            13358      0.29%      0.29% # Type of FU issued
system.cpu0.iq.FU_type_0::IntAlu              3778697     82.59%     82.88% # Type of FU issued
system.cpu0.iq.FU_type_0::IntMult                 910      0.02%     82.90% # Type of FU issued
system.cpu0.iq.FU_type_0::IntDiv                 8118      0.18%     83.08% # Type of FU issued
system.cpu0.iq.FU_type_0::FloatAdd              12006      0.26%     83.34% # Type of FU issued
system.cpu0.iq.FU_type_0::FloatCmp                  0      0.00%     83.34% # Type of FU issued
system.cpu0.iq.FU_type_0::FloatCvt                  0      0.00%     83.34% # Type of FU issued
system.cpu0.iq.FU_type_0::FloatMult                 0      0.00%     83.34% # Type of FU issued
system.cpu0.iq.FU_type_0::FloatMultAcc              0      0.00%     83.34% # Type of FU issued
system.cpu0.iq.FU_type_0::FloatDiv                  0      0.00%     83.34% # Type of FU issued
system.cpu0.iq.FU_type_0::FloatMisc                 0      0.00%     83.34% # Type of FU issued
system.cpu0.iq.FU_type_0::FloatSqrt                 0      0.00%     83.34% # Type of FU issued
system.cpu0.iq.FU_type_0::SimdAdd                   0      0.00%     83.34% # Type of FU issued
system.cpu0.iq.FU_type_0::SimdAddAcc                0      0.00%     83.34% # Type of FU issued
system.cpu0.iq.FU_type_0::SimdAlu                   0      0.00%     83.34% # Type of FU issued
system.cpu0.iq.FU_type_0::SimdCmp                   0      0.00%     83.34% # Type of FU issued
system.cpu0.iq.FU_type_0::SimdCvt                   0      0.00%     83.34% # Type of FU issued
system.cpu0.iq.FU_type_0::SimdMisc                  0      0.00%     83.34% # Type of FU issued
system.cpu0.iq.FU_type_0::SimdMult                  0      0.00%     83.34% # Type of FU issued
system.cpu0.iq.FU_type_0::SimdMultAcc               0      0.00%     83.34% # Type of FU issued
system.cpu0.iq.FU_type_0::SimdShift                 0      0.00%     83.34% # Type of FU issued
system.cpu0.iq.FU_type_0::SimdShiftAcc              0      0.00%     83.34% # Type of FU issued
system.cpu0.iq.FU_type_0::SimdSqrt                  0      0.00%     83.34% # Type of FU issued
system.cpu0.iq.FU_type_0::SimdFloatAdd              0      0.00%     83.34% # Type of FU issued
system.cpu0.iq.FU_type_0::SimdFloatAlu              0      0.00%     83.34% # Type of FU issued
system.cpu0.iq.FU_type_0::SimdFloatCmp              0      0.00%     83.34% # Type of FU issued
system.cpu0.iq.FU_type_0::SimdFloatCvt              0      0.00%     83.34% # Type of FU issued
system.cpu0.iq.FU_type_0::SimdFloatDiv              0      0.00%     83.34% # Type of FU issued
system.cpu0.iq.FU_type_0::SimdFloatMisc             0      0.00%     83.34% # Type of FU issued
system.cpu0.iq.FU_type_0::SimdFloatMult             0      0.00%     83.34% # Type of FU issued
system.cpu0.iq.FU_type_0::SimdFloatMultAcc            0      0.00%     83.34% # Type of FU issued
system.cpu0.iq.FU_type_0::SimdFloatSqrt             0      0.00%     83.34% # Type of FU issued
system.cpu0.iq.FU_type_0::MemRead              714086     15.61%     98.95% # Type of FU issued
system.cpu0.iq.FU_type_0::MemWrite              45769      1.00%     99.95% # Type of FU issued
system.cpu0.iq.FU_type_0::FloatMemRead           2135      0.05%     99.99% # Type of FU issued
system.cpu0.iq.FU_type_0::FloatMemWrite           298      0.01%    100.00% # Type of FU issued
system.cpu0.iq.FU_type_0::IprAccess                 0      0.00%    100.00% # Type of FU issued
system.cpu0.iq.FU_type_0::InstPrefetch              0      0.00%    100.00% # Type of FU issued
system.cpu0.iq.FU_type_0::total               4575377                       # Type of FU issued
system.cpu0.iq.rate                          0.149842                       # Inst issue rate
system.cpu0.iq.fu_busy_cnt                      13584                       # FU busy when requested
system.cpu0.iq.fu_busy_rate                  0.002969                       # FU busy rate (busy events/executed inst)
system.cpu0.iq.int_inst_queue_reads          39637826                       # Number of integer instruction queue reads
system.cpu0.iq.int_inst_queue_writes         10454957                       # Number of integer instruction queue writes
system.cpu0.iq.int_inst_queue_wakeup_accesses      4396291                       # Number of integer instruction queue wakeup accesses
system.cpu0.iq.fp_inst_queue_reads              30256                       # Number of floating instruction queue reads
system.cpu0.iq.fp_inst_queue_writes             27110                       # Number of floating instruction queue writes
system.cpu0.iq.fp_inst_queue_wakeup_accesses        13295                       # Number of floating instruction queue wakeup accesses
system.cpu0.iq.vec_inst_queue_reads                 0                       # Number of vector instruction queue reads
system.cpu0.iq.vec_inst_queue_writes                0                       # Number of vector instruction queue writes
system.cpu0.iq.vec_inst_queue_wakeup_accesses            0                       # Number of vector instruction queue wakeup accesses
system.cpu0.iq.int_alu_accesses               4560028                       # Number of integer alu accesses
system.cpu0.iq.fp_alu_accesses                  15575                       # Number of floating point alu accesses
system.cpu0.iq.vec_alu_accesses                     0                       # Number of vector alu accesses
system.cpu0.iew.lsq.thread0.forwLoads            4084                       # Number of loads that had data forwarded from stores
system.cpu0.iew.lsq.thread0.invAddrLoads            0                       # Number of loads ignored due to an invalid address
system.cpu0.iew.lsq.thread0.squashedLoads       775427                       # Number of loads squashed
system.cpu0.iew.lsq.thread0.ignoredResponses          138                       # Number of memory responses ignored because the instruction is squashed
system.cpu0.iew.lsq.thread0.memOrderViolation            0                       # Number of memory ordering violations
system.cpu0.iew.lsq.thread0.squashedStores        38340                       # Number of stores squashed
system.cpu0.iew.lsq.thread0.invAddrSwpfs            0                       # Number of software prefetches ignored due to an invalid address
system.cpu0.iew.lsq.thread0.blockedLoads            0                       # Number of blocked loads due to partial load-store forwarding
system.cpu0.iew.lsq.thread0.rescheduledLoads           41                       # Number of loads that were rescheduled
system.cpu0.iew.lsq.thread0.cacheBlocked         1646                       # Number of times an access to memory failed due to the cache being blocked
system.cpu0.iew.iewIdleCycles                       0                       # Number of cycles IEW is idle
system.cpu0.iew.iewSquashCycles                 58595                       # Number of cycles IEW is squashing
system.cpu0.iew.iewBlockCycles               25913703                       # Number of cycles IEW is blocking
system.cpu0.iew.iewUnblockCycles               251044                       # Number of cycles IEW is unblocking
system.cpu0.iew.iewDispatchedInsts            6441546                       # Number of instructions dispatched to IQ
system.cpu0.iew.iewDispSquashedInsts             3290                       # Number of squashed instructions skipped by dispatch
system.cpu0.iew.iewDispLoadInsts              1229985                       # Number of dispatched load instructions
system.cpu0.iew.iewDispStoreInsts               61799                       # Number of dispatched store instructions
system.cpu0.iew.iewDispNonSpecInsts              1284                       # Number of dispatched non-speculative instructions
system.cpu0.iew.iewIQFullEvents                 18288                       # Number of times the IQ has become full, causing a stall
system.cpu0.iew.iewLSQFullEvents                46907                       # Number of times the LSQ has become full, causing a stall
system.cpu0.iew.memOrderViolationEvents             0                       # Number of memory order violations
system.cpu0.iew.predictedTakenIncorrect         30621                       # Number of branches that were predicted taken incorrectly
system.cpu0.iew.predictedNotTakenIncorrect        34099                       # Number of branches that were predicted not taken incorrectly
system.cpu0.iew.branchMispredicts               64720                       # Number of branch mispredicts detected at execute
system.cpu0.iew.iewExecutedInsts              4500485                       # Number of executed instructions
system.cpu0.iew.iewExecLoadInsts               685467                       # Number of load instructions executed
system.cpu0.iew.iewExecSquashedInsts            74892                       # Number of squashed instructions skipped in execute
system.cpu0.iew.exec_swp                            0                       # number of swp insts executed
system.cpu0.iew.exec_nop                            0                       # number of nop insts executed
system.cpu0.iew.exec_refs                      728237                       # number of memory reference insts executed
system.cpu0.iew.exec_branches                  538651                       # Number of branches executed
system.cpu0.iew.exec_stores                     42770                       # Number of stores executed
system.cpu0.iew.exec_rate                    0.147389                       # Inst execution rate
system.cpu0.iew.wb_sent                       4423108                       # cumulative count of insts sent to commit
system.cpu0.iew.wb_count                      4409586                       # cumulative count of insts written-back
system.cpu0.iew.wb_producers                  3254472                       # num instructions producing a value
system.cpu0.iew.wb_consumers                  5136947                       # num instructions consuming a value
system.cpu0.iew.wb_rate                      0.144412                       # insts written-back per cycle
system.cpu0.iew.wb_fanout                    0.633542                       # average fanout of values written-back
system.cpu0.commit.commitSquashedInsts        4041002                       # The number of squashed insts skipped by commit
system.cpu0.commit.branchMispredicts            58595                       # The number of times a branch was mispredicted
system.cpu0.commit.committed_per_cycle::samples     29934805                       # Number of insts commited each cycle
system.cpu0.commit.committed_per_cycle::mean     0.080209                       # Number of insts commited each cycle
system.cpu0.commit.committed_per_cycle::stdev     0.520646                       # Number of insts commited each cycle
system.cpu0.commit.committed_per_cycle::underflows            0      0.00%      0.00% # Number of insts commited each cycle
system.cpu0.commit.committed_per_cycle::0     28885870     96.50%     96.50% # Number of insts commited each cycle
system.cpu0.commit.committed_per_cycle::1       486618      1.63%     98.12% # Number of insts commited each cycle
system.cpu0.commit.committed_per_cycle::2       115050      0.38%     98.51% # Number of insts commited each cycle
system.cpu0.commit.committed_per_cycle::3       315228      1.05%     99.56% # Number of insts commited each cycle
system.cpu0.commit.committed_per_cycle::4        54914      0.18%     99.74% # Number of insts commited each cycle
system.cpu0.commit.committed_per_cycle::5        28185      0.09%     99.84% # Number of insts commited each cycle
system.cpu0.commit.committed_per_cycle::6         4873      0.02%     99.85% # Number of insts commited each cycle
system.cpu0.commit.committed_per_cycle::7         3717      0.01%     99.87% # Number of insts commited each cycle
system.cpu0.commit.committed_per_cycle::8        40350      0.13%    100.00% # Number of insts commited each cycle
system.cpu0.commit.committed_per_cycle::overflows            0      0.00%    100.00% # Number of insts commited each cycle
system.cpu0.commit.committed_per_cycle::min_value            0                       # Number of insts commited each cycle
system.cpu0.commit.committed_per_cycle::max_value            8                       # Number of insts commited each cycle
system.cpu0.commit.committed_per_cycle::total     29934805                       # Number of insts commited each cycle
system.cpu0.commit.committedInsts             1202247                       # Number of instructions committed
system.cpu0.commit.committedOps               2401040                       # Number of ops (including micro ops) committed
system.cpu0.commit.swp_count                        0                       # Number of s/w prefetches committed
system.cpu0.commit.refs                        478021                       # Number of memory references committed
system.cpu0.commit.loads                       454562                       # Number of loads committed
system.cpu0.commit.membars                          0                       # Number of memory barriers committed
system.cpu0.commit.branches                    433019                       # Number of branches committed
system.cpu0.commit.vec_insts                        0                       # Number of committed Vector instructions.
system.cpu0.commit.fp_insts                      9530                       # Number of committed floating point instructions.
system.cpu0.commit.int_insts                  2391491                       # Number of committed integer instructions.
system.cpu0.commit.function_calls                4150                       # Number of function calls committed.
system.cpu0.commit.op_class_0::No_OpClass         2831      0.12%      0.12% # Class of committed instruction
system.cpu0.commit.op_class_0::IntAlu         1905056     79.34%     79.46% # Class of committed instruction
system.cpu0.commit.op_class_0::IntMult            166      0.01%     79.47% # Class of committed instruction
system.cpu0.commit.op_class_0::IntDiv            6842      0.28%     79.75% # Class of committed instruction
system.cpu0.commit.op_class_0::FloatAdd          8124      0.34%     80.09% # Class of committed instruction
system.cpu0.commit.op_class_0::FloatCmp             0      0.00%     80.09% # Class of committed instruction
system.cpu0.commit.op_class_0::FloatCvt             0      0.00%     80.09% # Class of committed instruction
system.cpu0.commit.op_class_0::FloatMult            0      0.00%     80.09% # Class of committed instruction
system.cpu0.commit.op_class_0::FloatMultAcc            0      0.00%     80.09% # Class of committed instruction
system.cpu0.commit.op_class_0::FloatDiv             0      0.00%     80.09% # Class of committed instruction
system.cpu0.commit.op_class_0::FloatMisc            0      0.00%     80.09% # Class of committed instruction
system.cpu0.commit.op_class_0::FloatSqrt            0      0.00%     80.09% # Class of committed instruction
system.cpu0.commit.op_class_0::SimdAdd              0      0.00%     80.09% # Class of committed instruction
system.cpu0.commit.op_class_0::SimdAddAcc            0      0.00%     80.09% # Class of committed instruction
system.cpu0.commit.op_class_0::SimdAlu              0      0.00%     80.09% # Class of committed instruction
system.cpu0.commit.op_class_0::SimdCmp              0      0.00%     80.09% # Class of committed instruction
system.cpu0.commit.op_class_0::SimdCvt              0      0.00%     80.09% # Class of committed instruction
system.cpu0.commit.op_class_0::SimdMisc             0      0.00%     80.09% # Class of committed instruction
system.cpu0.commit.op_class_0::SimdMult             0      0.00%     80.09% # Class of committed instruction
system.cpu0.commit.op_class_0::SimdMultAcc            0      0.00%     80.09% # Class of committed instruction
system.cpu0.commit.op_class_0::SimdShift            0      0.00%     80.09% # Class of committed instruction
system.cpu0.commit.op_class_0::SimdShiftAcc            0      0.00%     80.09% # Class of committed instruction
system.cpu0.commit.op_class_0::SimdSqrt             0      0.00%     80.09% # Class of committed instruction
system.cpu0.commit.op_class_0::SimdFloatAdd            0      0.00%     80.09% # Class of committed instruction
system.cpu0.commit.op_class_0::SimdFloatAlu            0      0.00%     80.09% # Class of committed instruction
system.cpu0.commit.op_class_0::SimdFloatCmp            0      0.00%     80.09% # Class of committed instruction
system.cpu0.commit.op_class_0::SimdFloatCvt            0      0.00%     80.09% # Class of committed instruction
system.cpu0.commit.op_class_0::SimdFloatDiv            0      0.00%     80.09% # Class of committed instruction
system.cpu0.commit.op_class_0::SimdFloatMisc            0      0.00%     80.09% # Class of committed instruction
system.cpu0.commit.op_class_0::SimdFloatMult            0      0.00%     80.09% # Class of committed instruction
system.cpu0.commit.op_class_0::SimdFloatMultAcc            0      0.00%     80.09% # Class of committed instruction
system.cpu0.commit.op_class_0::SimdFloatSqrt            0      0.00%     80.09% # Class of committed instruction
system.cpu0.commit.op_class_0::MemRead         453156     18.87%     98.96% # Class of committed instruction
system.cpu0.commit.op_class_0::MemWrite         23459      0.98%     99.94% # Class of committed instruction
system.cpu0.commit.op_class_0::FloatMemRead         1406      0.06%    100.00% # Class of committed instruction
system.cpu0.commit.op_class_0::FloatMemWrite            0      0.00%    100.00% # Class of committed instruction
system.cpu0.commit.op_class_0::IprAccess            0      0.00%    100.00% # Class of committed instruction
system.cpu0.commit.op_class_0::InstPrefetch            0      0.00%    100.00% # Class of committed instruction
system.cpu0.commit.op_class_0::total          2401040                       # Class of committed instruction
system.cpu0.commit.bw_lim_events                40350                       # number cycles where commit BW limit reached
system.cpu0.rob.rob_reads                    36336497                       # The number of ROB reads
system.cpu0.rob.rob_writes                   13449025                       # The number of ROB writes
system.cpu0.timesIdled                            282                       # Number of times that the entire CPU went into an idle state and unscheduled itself
system.cpu0.idleCycles                          36228                       # Total number of cycles that the CPU has spent unscheduled due to idling
system.cpu0.committedInsts                    1202247                       # Number of Instructions Simulated
system.cpu0.committedOps                      2401040                       # Number of Ops (including micro ops) Simulated
system.cpu0.cpi                             25.398016                       # CPI: Cycles Per Instruction
system.cpu0.cpi_total                       25.398016                       # CPI: Total CPI of All Threads
system.cpu0.ipc                              0.039373                       # IPC: Instructions Per Cycle
system.cpu0.ipc_total                        0.039373                       # IPC: Total IPC of All Threads
system.cpu0.int_regfile_reads                 4424808                       # number of integer regfile reads
system.cpu0.int_regfile_writes                3833644                       # number of integer regfile writes
system.cpu0.fp_regfile_reads                    23571                       # number of floating regfile reads
system.cpu0.fp_regfile_writes                   11657                       # number of floating regfile writes
system.cpu0.cc_regfile_reads                  2853451                       # number of cc regfile reads
system.cpu0.cc_regfile_writes                 1210016                       # number of cc regfile writes
system.cpu0.misc_regfile_reads                2384636                       # number of misc regfile reads
system.cpu0.dcache.tags.pwrStateResidencyTicks::UNDEFINED  15267344125                       # Cumulative time (in ticks) in various power states
system.cpu0.dcache.tags.replacements           237777                       # number of replacements
system.cpu0.dcache.tags.tagsinuse                1024                       # Cycle average of tags in use
system.cpu0.dcache.tags.total_refs             273661                       # Total number of references to valid blocks.
system.cpu0.dcache.tags.sampled_refs           237777                       # Sample count of references to valid blocks.
system.cpu0.dcache.tags.avg_refs             1.150915                       # Average number of references to valid blocks.
system.cpu0.dcache.tags.warmup_cycle                0                       # Cycle when the warmup percentage was hit.
system.cpu0.dcache.tags.occ_blocks::cpu0.data         1024                       # Average occupied blocks per requestor
system.cpu0.dcache.tags.occ_percent::cpu0.data            1                       # Average percentage of cache occupancy
system.cpu0.dcache.tags.occ_percent::total            1                       # Average percentage of cache occupancy
system.cpu0.dcache.tags.occ_task_id_blocks::1024         1024                       # Occupied blocks per task id
system.cpu0.dcache.tags.age_task_id_blocks_1024::0          129                       # Occupied blocks per task id
system.cpu0.dcache.tags.age_task_id_blocks_1024::1          793                       # Occupied blocks per task id
system.cpu0.dcache.tags.age_task_id_blocks_1024::2          101                       # Occupied blocks per task id
system.cpu0.dcache.tags.age_task_id_blocks_1024::3            1                       # Occupied blocks per task id
system.cpu0.dcache.tags.occ_task_id_percent::1024            1                       # Percentage of cache occupancy per task id
system.cpu0.dcache.tags.tag_accesses          3041093                       # Number of tag accesses
system.cpu0.dcache.tags.data_accesses         3041093                       # Number of data accesses
system.cpu0.dcache.pwrStateResidencyTicks::UNDEFINED  15267344125                       # Cumulative time (in ticks) in various power states
system.cpu0.dcache.ReadReq_hits::cpu0.data       255588                       # number of ReadReq hits
system.cpu0.dcache.ReadReq_hits::total         255588                       # number of ReadReq hits
system.cpu0.dcache.WriteReq_hits::cpu0.data        22561                       # number of WriteReq hits
system.cpu0.dcache.WriteReq_hits::total         22561                       # number of WriteReq hits
system.cpu0.dcache.demand_hits::cpu0.data       278149                       # number of demand (read+write) hits
system.cpu0.dcache.demand_hits::total          278149                       # number of demand (read+write) hits
system.cpu0.dcache.overall_hits::cpu0.data       278149                       # number of overall hits
system.cpu0.dcache.overall_hits::total         278149                       # number of overall hits
system.cpu0.dcache.ReadReq_misses::cpu0.data       421782                       # number of ReadReq misses
system.cpu0.dcache.ReadReq_misses::total       421782                       # number of ReadReq misses
system.cpu0.dcache.WriteReq_misses::cpu0.data          898                       # number of WriteReq misses
system.cpu0.dcache.WriteReq_misses::total          898                       # number of WriteReq misses
system.cpu0.dcache.demand_misses::cpu0.data       422680                       # number of demand (read+write) misses
system.cpu0.dcache.demand_misses::total        422680                       # number of demand (read+write) misses
system.cpu0.dcache.overall_misses::cpu0.data       422680                       # number of overall misses
system.cpu0.dcache.overall_misses::total       422680                       # number of overall misses
system.cpu0.dcache.ReadReq_miss_latency::cpu0.data  34769340500                       # number of ReadReq miss cycles
system.cpu0.dcache.ReadReq_miss_latency::total  34769340500                       # number of ReadReq miss cycles
system.cpu0.dcache.WriteReq_miss_latency::cpu0.data     32861999                       # number of WriteReq miss cycles
system.cpu0.dcache.WriteReq_miss_latency::total     32861999                       # number of WriteReq miss cycles
system.cpu0.dcache.demand_miss_latency::cpu0.data  34802202499                       # number of demand (read+write) miss cycles
system.cpu0.dcache.demand_miss_latency::total  34802202499                       # number of demand (read+write) miss cycles
system.cpu0.dcache.overall_miss_latency::cpu0.data  34802202499                       # number of overall miss cycles
system.cpu0.dcache.overall_miss_latency::total  34802202499                       # number of overall miss cycles
system.cpu0.dcache.ReadReq_accesses::cpu0.data       677370                       # number of ReadReq accesses(hits+misses)
system.cpu0.dcache.ReadReq_accesses::total       677370                       # number of ReadReq accesses(hits+misses)
system.cpu0.dcache.WriteReq_accesses::cpu0.data        23459                       # number of WriteReq accesses(hits+misses)
system.cpu0.dcache.WriteReq_accesses::total        23459                       # number of WriteReq accesses(hits+misses)
system.cpu0.dcache.demand_accesses::cpu0.data       700829                       # number of demand (read+write) accesses
system.cpu0.dcache.demand_accesses::total       700829                       # number of demand (read+write) accesses
system.cpu0.dcache.overall_accesses::cpu0.data       700829                       # number of overall (read+write) accesses
system.cpu0.dcache.overall_accesses::total       700829                       # number of overall (read+write) accesses
system.cpu0.dcache.ReadReq_miss_rate::cpu0.data     0.622676                       # miss rate for ReadReq accesses
system.cpu0.dcache.ReadReq_miss_rate::total     0.622676                       # miss rate for ReadReq accesses
system.cpu0.dcache.WriteReq_miss_rate::cpu0.data     0.038280                       # miss rate for WriteReq accesses
system.cpu0.dcache.WriteReq_miss_rate::total     0.038280                       # miss rate for WriteReq accesses
system.cpu0.dcache.demand_miss_rate::cpu0.data     0.603114                       # miss rate for demand accesses
system.cpu0.dcache.demand_miss_rate::total     0.603114                       # miss rate for demand accesses
system.cpu0.dcache.overall_miss_rate::cpu0.data     0.603114                       # miss rate for overall accesses
system.cpu0.dcache.overall_miss_rate::total     0.603114                       # miss rate for overall accesses
system.cpu0.dcache.ReadReq_avg_miss_latency::cpu0.data 82434.386721                       # average ReadReq miss latency
system.cpu0.dcache.ReadReq_avg_miss_latency::total 82434.386721                       # average ReadReq miss latency
system.cpu0.dcache.WriteReq_avg_miss_latency::cpu0.data 36594.653675                       # average WriteReq miss latency
system.cpu0.dcache.WriteReq_avg_miss_latency::total 36594.653675                       # average WriteReq miss latency
system.cpu0.dcache.demand_avg_miss_latency::cpu0.data 82336.998436                       # average overall miss latency
system.cpu0.dcache.demand_avg_miss_latency::total 82336.998436                       # average overall miss latency
system.cpu0.dcache.overall_avg_miss_latency::cpu0.data 82336.998436                       # average overall miss latency
system.cpu0.dcache.overall_avg_miss_latency::total 82336.998436                       # average overall miss latency
[...]
system.l2.tags.tag_accesses                   3999318                       # Number of tag accesses
system.l2.tags.data_accesses                  3999318                       # Number of data accesses
system.l2.pwrStateResidencyTicks::UNDEFINED  15267344125                       # Cumulative time (in ticks) in various power states
system.l2.WritebackDirty_hits::writebacks         2236                       # number of WritebackDirty hits
system.l2.WritebackDirty_hits::total             2236                       # number of WritebackDirty hits
system.l2.ReadExReq_hits::cpu0.data               671                       # number of ReadExReq hits
system.l2.ReadExReq_hits::total                   671                       # number of ReadExReq hits
system.l2.ReadSharedReq_hits::cpu0.data         39414                       # number of ReadSharedReq hits
system.l2.ReadSharedReq_hits::total             39414                       # number of ReadSharedReq hits
system.l2.demand_hits::cpu0.data                40085                       # number of demand (read+write) hits
system.l2.demand_hits::total                    40085                       # number of demand (read+write) hits
system.l2.overall_hits::cpu0.data               40085                       # number of overall hits
system.l2.overall_hits::total                   40085                       # number of overall hits
system.l2.ReadExReq_misses::cpu0.data             225                       # number of ReadExReq misses
system.l2.ReadExReq_misses::total                 225                       # number of ReadExReq misses
system.l2.ReadSharedReq_misses::cpu0.data       197467                       # number of ReadSharedReq misses
system.l2.ReadSharedReq_misses::total          197467                       # number of ReadSharedReq misses
system.l2.demand_misses::cpu0.data             197692                       # number of demand (read+write) misses
system.l2.demand_misses::total                 197692                       # number of demand (read+write) misses
system.l2.overall_misses::cpu0.data            197692                       # number of overall misses
system.l2.overall_misses::total                197692                       # number of overall misses
system.l2.ReadExReq_miss_latency::cpu0.data     23194000                       # number of ReadExReq miss cycles
system.l2.ReadExReq_miss_latency::total      23194000                       # number of ReadExReq miss cycles
system.l2.ReadSharedReq_miss_latency::cpu0.data  18601788500                       # number of ReadSharedReq miss cycles
system.l2.ReadSharedReq_miss_latency::total  18601788500                       # number of ReadSharedReq miss cycles
system.l2.demand_miss_latency::cpu0.data  18624982500                       # number of demand (read+write) miss cycles
system.l2.demand_miss_latency::total      18624982500                       # number of demand (read+write) miss cycles
system.l2.overall_miss_latency::cpu0.data  18624982500                       # number of overall miss cycles
system.l2.overall_miss_latency::total     18624982500                       # number of overall miss cycles
system.l2.WritebackDirty_accesses::writebacks         2236                       # number of WritebackDirty accesses(hits+misses)
system.l2.WritebackDirty_accesses::total         2236                       # number of WritebackDirty accesses(hits+misses)
system.l2.ReadExReq_accesses::cpu0.data           896                       # number of ReadExReq accesses(hits+misses)
system.l2.ReadExReq_accesses::total               896                       # number of ReadExReq accesses(hits+misses)
system.l2.ReadSharedReq_accesses::cpu0.data       236881                       # number of ReadSharedReq accesses(hits+misses)
system.l2.ReadSharedReq_accesses::total        236881                       # number of ReadSharedReq accesses(hits+misses)
system.l2.demand_accesses::cpu0.data           237777                       # number of demand (read+write) accesses
system.l2.demand_accesses::total               237777                       # number of demand (read+write) accesses
system.l2.overall_accesses::cpu0.data          237777                       # number of overall (read+write) accesses
system.l2.overall_accesses::total              237777                       # number of overall (read+write) accesses
system.l2.ReadExReq_miss_rate::cpu0.data     0.251116                       # miss rate for ReadExReq accesses
system.l2.ReadExReq_miss_rate::total         0.251116                       # miss rate for ReadExReq accesses
system.l2.ReadSharedReq_miss_rate::cpu0.data     0.833613                       # miss rate for ReadSharedReq accesses
system.l2.ReadSharedReq_miss_rate::total     0.833613                       # miss rate for ReadSharedReq accesses
system.l2.demand_miss_rate::cpu0.data        0.831418                       # miss rate for demand accesses
system.l2.demand_miss_rate::total            0.831418                       # miss rate for demand accesses
system.l2.overall_miss_rate::cpu0.data       0.831418                       # miss rate for overall accesses
system.l2.overall_miss_rate::total           0.831418                       # miss rate for overall accesses
system.l2.ReadExReq_avg_miss_latency::cpu0.data 103084.444444                       # average ReadExReq miss latency
system.l2.ReadExReq_avg_miss_latency::total 103084.444444                       # average ReadExReq miss latency
system.l2.ReadSharedReq_avg_miss_latency::cpu0.data 94202.010969                       # average ReadSharedReq miss latency
system.l2.ReadSharedReq_avg_miss_latency::total 94202.010969                       # average ReadSharedReq miss latency
system.l2.demand_avg_miss_latency::cpu0.data 94212.120369                       # average overall miss latency
system.l2.demand_avg_miss_latency::total 94212.120369                       # average overall miss latency
system.l2.overall_avg_miss_latency::cpu0.data 94212.120369                       # average overall miss latency
system.l2.overall_avg_miss_latency::total 94212.120369                       # average overall miss latency
system.l2.blocked_cycles::no_mshrs                  0                       # number of cycles access was blocked
system.l2.blocked_cycles::no_targets                0                       # number of cycles access was blocked
system.l2.blocked::no_mshrs                         0                       # number of cycles access was blocked
system.l2.blocked::no_targets                       0                       # number of cycles access was blocked
system.l2.avg_blocked_cycles::no_mshrs            nan                       # average number of cycles each access was blocked
system.l2.avg_blocked_cycles::no_targets          nan                       # average number of cycles each access was blocked
system.l2.writebacks::writebacks                  360                       # number of writebacks
system.l2.writebacks::total                       360                       # number of writebacks
system.l2.ReadExReq_mshr_misses::cpu0.data          225                       # number of ReadExReq MSHR misses
system.l2.ReadExReq_mshr_misses::total            225                       # number of ReadExReq MSHR misses
system.l2.ReadSharedReq_mshr_misses::cpu0.data       197467                       # number of ReadSharedReq MSHR misses
system.l2.ReadSharedReq_mshr_misses::total       197467                       # number of ReadSharedReq MSHR misses
system.l2.demand_mshr_misses::cpu0.data        197692                       # number of demand (read+write) MSHR misses
system.l2.demand_mshr_misses::total            197692                       # number of demand (read+write) MSHR misses
system.l2.overall_mshr_misses::cpu0.data       197692                       # number of overall MSHR misses
system.l2.overall_mshr_misses::total           197692                       # number of overall MSHR misses
system.l2.ReadExReq_mshr_miss_latency::cpu0.data     20944000                       # number of ReadExReq MSHR miss cycles
system.l2.ReadExReq_mshr_miss_latency::total     20944000                       # number of ReadExReq MSHR miss cycles
system.l2.ReadSharedReq_mshr_miss_latency::cpu0.data  16627128500                       # number of ReadSharedReq MSHR miss cycles
system.l2.ReadSharedReq_mshr_miss_latency::total  16627128500                       # number of ReadSharedReq MSHR miss cycles
system.l2.demand_mshr_miss_latency::cpu0.data  16648072500                       # number of demand (read+write) MSHR miss cycles
system.l2.demand_mshr_miss_latency::total  16648072500                       # number of demand (read+write) MSHR miss cycles
system.l2.overall_mshr_miss_latency::cpu0.data  16648072500                       # number of overall MSHR miss cycles
system.l2.overall_mshr_miss_latency::total  16648072500                       # number of overall MSHR miss cycles
system.l2.ReadExReq_mshr_miss_rate::cpu0.data     0.251116                       # mshr miss rate for ReadExReq accesses
system.l2.ReadExReq_mshr_miss_rate::total     0.251116                       # mshr miss rate for ReadExReq accesses
system.l2.ReadSharedReq_mshr_miss_rate::cpu0.data     0.833613                       # mshr miss rate for ReadSharedReq accesses
system.l2.ReadSharedReq_mshr_miss_rate::total     0.833613                       # mshr miss rate for ReadSharedReq accesses
system.l2.demand_mshr_miss_rate::cpu0.data     0.831418                       # mshr miss rate for demand accesses
system.l2.demand_mshr_miss_rate::total       0.831418                       # mshr miss rate for demand accesses
system.l2.overall_mshr_miss_rate::cpu0.data     0.831418                       # mshr miss rate for overall accesses
system.l2.overall_mshr_miss_rate::total      0.831418                       # mshr miss rate for overall accesses
system.l2.ReadExReq_avg_mshr_miss_latency::cpu0.data 93084.444444                       # average ReadExReq mshr miss latency
system.l2.ReadExReq_avg_mshr_miss_latency::total 93084.444444                       # average ReadExReq mshr miss latency
system.l2.ReadSharedReq_avg_mshr_miss_latency::cpu0.data 84202.061610                       # average ReadSharedReq mshr miss latency
system.l2.ReadSharedReq_avg_mshr_miss_latency::total 84202.061610                       # average ReadSharedReq mshr miss latency
system.l2.demand_avg_mshr_miss_latency::cpu0.data 84212.170953                       # average overall mshr miss latency
system.l2.demand_avg_mshr_miss_latency::total 84212.170953                       # average overall mshr miss latency
system.l2.overall_avg_mshr_miss_latency::cpu0.data 84212.170953                       # average overall mshr miss latency
system.l2.overall_avg_mshr_miss_latency::total 84212.170953                       # average overall mshr miss latency
system.membus.snoop_filter.tot_requests        395376                       # Total number of requests made to the snoop filter.
system.membus.snoop_filter.hit_single_requests       197692                       # Number of requests hitting in the snoop filter with a single holder of the requested data.
system.membus.snoop_filter.hit_multi_requests            0                       # Number of requests hitting in the snoop filter with multiple (>1) holders of the requested data.
system.membus.snoop_filter.tot_snoops               0                       # Total number of snoops made to the snoop filter.
system.membus.snoop_filter.hit_single_snoops            0                       # Number of snoops hitting in the snoop filter with a single holder of the requested data.
system.membus.snoop_filter.hit_multi_snoops            0                       # Number of snoops hitting in the snoop filter with multiple (>1) holders of the requested data.
system.membus.pwrStateResidencyTicks::UNDEFINED  15267344125                       # Cumulative time (in ticks) in various power states
system.membus.trans_dist::ReadResp             197466                       # Transaction distribution
system.membus.trans_dist::WritebackDirty          360                       # Transaction distribution
system.membus.trans_dist::CleanEvict           197324                       # Transaction distribution
system.membus.trans_dist::ReadExReq               225                       # Transaction distribution
system.membus.trans_dist::ReadExResp              225                       # Transaction distribution
system.membus.trans_dist::ReadSharedReq        197467                       # Transaction distribution
system.membus.pkt_count_system.l2.mem_side::system.mem_ctrls.port       593067                       # Packet count per connected master and slave (bytes)
system.membus.pkt_count_system.l2.mem_side::total       593067                       # Packet count per connected master and slave (bytes)
system.membus.pkt_count::total                 593067                       # Packet count per connected master and slave (bytes)
system.membus.pkt_size_system.l2.mem_side::system.mem_ctrls.port     12675264                       # Cumulative packet size per connected master and slave (bytes)
system.membus.pkt_size_system.l2.mem_side::total     12675264                       # Cumulative packet size per connected master and slave (bytes)
system.membus.pkt_size::total                12675264                       # Cumulative packet size per connected master and slave (bytes)
system.membus.snoops                                0                       # Total snoops (count)
system.membus.snoopTraffic                          0                       # Total snoop traffic (bytes)
system.membus.snoop_fanout::samples            197692                       # Request fanout histogram
system.membus.snoop_fanout::mean                    0                       # Request fanout histogram
system.membus.snoop_fanout::stdev                   0                       # Request fanout histogram
system.membus.snoop_fanout::underflows              0      0.00%      0.00% # Request fanout histogram
system.membus.snoop_fanout::0                  197692    100.00%    100.00% # Request fanout histogram
system.membus.snoop_fanout::1                       0      0.00%    100.00% # Request fanout histogram
system.membus.snoop_fanout::overflows               0      0.00%    100.00% # Request fanout histogram
system.membus.snoop_fanout::min_value               0                       # Request fanout histogram
system.membus.snoop_fanout::max_value               0                       # Request fanout histogram
system.membus.snoop_fanout::total              197692                       # Request fanout histogram
system.membus.reqLayer4.occupancy           466433000                       # Layer occupancy (ticks)
system.membus.reqLayer4.utilization               3.1                       # Layer utilization (%)
system.membus.respLayer1.occupancy         1067718750                       # Layer occupancy (ticks)
system.membus.respLayer1.utilization              7.0                       # Layer utilization (%)
system.tol2bus.snoop_filter.tot_requests       475554                       # Total number of requests made to the snoop filter.
system.tol2bus.snoop_filter.hit_single_requests       237778                       # Number of requests hitting in the snoop filter with a single holder of the requested data.
system.tol2bus.snoop_filter.hit_multi_requests          616                       # Number of requests hitting in the snoop filter with multiple (>1) holders of the requested data.
system.tol2bus.snoop_filter.tot_snoops             11                       # Total number of snoops made to the snoop filter.
system.tol2bus.snoop_filter.hit_single_snoops           10                       # Number of snoops hitting in the snoop filter with a single holder of the requested data.
system.tol2bus.snoop_filter.hit_multi_snoops            1                       # Number of snoops hitting in the snoop filter with multiple (>1) holders of the requested data.
system.tol2bus.pwrStateResidencyTicks::UNDEFINED  15267344125                       # Cumulative time (in ticks) in various power states
system.tol2bus.trans_dist::ReadResp            236881                       # Transaction distribution
system.tol2bus.trans_dist::WritebackDirty         2596                       # Transaction distribution
system.tol2bus.trans_dist::CleanEvict          432875                       # Transaction distribution
system.tol2bus.trans_dist::ReadExReq              896                       # Transaction distribution
system.tol2bus.trans_dist::ReadExResp             896                       # Transaction distribution
system.tol2bus.trans_dist::ReadSharedReq       236881                       # Transaction distribution
system.tol2bus.pkt_count_system.cpu0.dcache.mem_side::system.l2.cpu_side       713331                       # Packet count per connected master and slave (bytes)
system.tol2bus.pkt_count::total                713331                       # Packet count per connected master and slave (bytes)
system.tol2bus.pkt_size_system.cpu0.dcache.mem_side::system.l2.cpu_side     15360832                       # Cumulative packet size per connected master and slave (bytes)
system.tol2bus.pkt_size::total               15360832                       # Cumulative packet size per connected master and slave (bytes)
system.tol2bus.snoops                          197694                       # Total snoops (count)
system.tol2bus.snoopTraffic                     23040                       # Total snoop traffic (bytes)
system.tol2bus.snoop_fanout::samples           435471                       # Request fanout histogram
system.tol2bus.snoop_fanout::mean            0.001444                       # Request fanout histogram
system.tol2bus.snoop_fanout::stdev           0.038038                       # Request fanout histogram
system.tol2bus.snoop_fanout::underflows             0      0.00%      0.00% # Request fanout histogram
system.tol2bus.snoop_fanout::0                 434843     99.86%     99.86% # Request fanout histogram
system.tol2bus.snoop_fanout::1                    627      0.14%    100.00% # Request fanout histogram
system.tol2bus.snoop_fanout::2                      1      0.00%    100.00% # Request fanout histogram
system.tol2bus.snoop_fanout::3                      0      0.00%    100.00% # Request fanout histogram
system.tol2bus.snoop_fanout::4                      0      0.00%    100.00% # Request fanout histogram
system.tol2bus.snoop_fanout::5                      0      0.00%    100.00% # Request fanout histogram
system.tol2bus.snoop_fanout::6                      0      0.00%    100.00% # Request fanout histogram
system.tol2bus.snoop_fanout::7                      0      0.00%    100.00% # Request fanout histogram
system.tol2bus.snoop_fanout::8                      0      0.00%    100.00% # Request fanout histogram
system.tol2bus.snoop_fanout::overflows              0      0.00%    100.00% # Request fanout histogram
system.tol2bus.snoop_fanout::min_value              0                       # Request fanout histogram
system.tol2bus.snoop_fanout::max_value              2                       # Request fanout histogram
system.tol2bus.snoop_fanout::total             435471                       # Request fanout histogram
system.tol2bus.reqLayer0.occupancy          240013000                       # Layer occupancy (ticks)
system.tol2bus.reqLayer0.utilization              1.6                       # Layer utilization (%)
system.tol2bus.respLayer1.occupancy         356665500                       # Layer occupancy (ticks)
system.tol2bus.respLayer1.utilization             2.3                       # Layer utilization (%)

---------- End Simulation Statistics   ----------
