
---------- Begin Simulation Statistics ----------
sim_seconds                                  0.015267                       # Number of seconds simulated
sim_ticks                                 15267344125                       # Number of ticks simulated
final_tick                               4717609334625                       # Number of ticks from beginning of simulation (restored from checkpoints and never reset)
sim_freq                                 1000000000000                       # Frequency of simulated ticks
host_inst_rate                              120715668                       # Simulator instruction rate (inst/s)
host_op_rate                                223962284                       # Simulator op (including micro ops) rate (op/s)
host_tick_rate                              325082861                       # Simulator tick rate (ticks/s)
host_mem_usage                                1248976                       # Number of bytes of host memory used
host_seconds                                    46.96                       # Real time elapsed on the host
sim_insts                                  5669345277                       # Number of instructions simulated
sim_ops                                   10518267956                       # Number of ops (including micro ops) simulated
system.voltage_domain.voltage                       1                       # Voltage in Volts
system.clk_domain.clock                          1000                       # Clock period in ticks
system.mem_ctrls.pwrStateResidencyTicks::UNDEFINED  15267344125                       # Cumulative time (in ticks) in various power states
system.mem_ctrls.bytes_read::cpu0.data       12608576                       # Number of bytes read from this memory
system.mem_ctrls.bytes_read::total           12608576                       # Number of bytes read from this memory
system.mem_ctrls.bytes_written::writebacks        32512                       # Number of bytes written to this memory
system.mem_ctrls.bytes_written::total           32512                       # Number of bytes written to this memory
system.mem_ctrls.num_reads::cpu0.data          197009                       # Number of read requests responded to by this memory
system.mem_ctrls.num_reads::total              197009                       # Number of read requests responded to by this memory
system.mem_ctrls.num_writes::writebacks           508                       # Number of write requests responded to by this memory
system.mem_ctrls.num_writes::total                508                       # Number of write requests responded to by this memory
system.mem_ctrls.bw_read::cpu0.data         825852610                       # Total read bandwidth from this memory (bytes/s)
system.mem_ctrls.bw_read::total             825852610                       # Total read bandwidth from this memory (bytes/s)
system.mem_ctrls.bw_write::writebacks         2129512                       # Write bandwidth from this memory (bytes/s)
system.mem_ctrls.bw_write::total              2129512                       # Write bandwidth from this memory (bytes/s)
system.mem_ctrls.bw_total::writebacks         2129512                       # Total bandwidth to/from this memory (bytes/s)
system.mem_ctrls.bw_total::cpu0.data        825852610                       # Total bandwidth to/from this memory (bytes/s)
system.mem_ctrls.bw_total::total            827982123                       # Total bandwidth to/from this memory (bytes/s)
system.mem_ctrls.readReqs                      197009                       # Number of read requests accepted
system.mem_ctrls.writeReqs                        508                       # Number of write requests accepted
system.mem_ctrls.readBursts                    197009                       # Number of DRAM read bursts, including those serviced by the write queue
system.mem_ctrls.writeBursts                      508                       # Number of DRAM write bursts, including those merged in the write queue
system.mem_ctrls.bytesReadDRAM               12604992                       # Total number of bytes read from DRAM
system.mem_ctrls.bytesReadWrQ                    3584                       # Total number of bytes read from write queue
system.mem_ctrls.bytesWritten                   32768                       # Total number of bytes written to DRAM
system.mem_ctrls.bytesReadSys                12608576                       # Total read bytes from the system interface side
system.mem_ctrls.bytesWrittenSys                32512                       # Total written bytes from the system interface side
system.mem_ctrls.servicedByWrQ                     56                       # Number of DRAM read bursts serviced by the write queue
system.mem_ctrls.mergedWrBursts                     1                       # Number of DRAM write bursts merged with an existing one
system.mem_ctrls.neitherReadNorWriteReqs            0                       # Number of requests that are neither read nor write
system.mem_ctrls.perBankRdBursts::0             12243                       # Per bank write bursts
system.mem_ctrls.perBankRdBursts::1             12204                       # Per bank write bursts
system.mem_ctrls.perBankRdBursts::2             12428                       # Per bank write bursts
system.mem_ctrls.perBankRdBursts::3             12206                       # Per bank write bursts
system.mem_ctrls.perBankRdBursts::4             11926                       # Per bank write bursts
system.mem_ctrls.perBankRdBursts::5             12221                       # Per bank write bursts
system.mem_ctrls.perBankRdBursts::6             11954                       # Per bank write bursts
system.mem_ctrls.perBankRdBursts::7             12171                       # Per bank write bursts
system.mem_ctrls.perBankRdBursts::8             12144                       # Per bank write bursts
system.mem_ctrls.perBankRdBursts::9             12326                       # Per bank write bursts
system.mem_ctrls.perBankRdBursts::10            12177                       # Per bank write bursts
system.mem_ctrls.perBankRdBursts::11            12347                       # Per bank write bursts
system.mem_ctrls.perBankRdBursts::12            12789                       # Per bank write bursts
system.mem_ctrls.perBankRdBursts::13            12724                       # Per bank write bursts
system.mem_ctrls.perBankRdBursts::14            12751                       # Per bank write bursts
system.mem_ctrls.perBankRdBursts::15            12342                       # Per bank write bursts
system.mem_ctrls.perBankWrBursts::0                 0                       # Per bank write bursts
system.mem_ctrls.perBankWrBursts::1                 1                       # Per bank write bursts
system.mem_ctrls.perBankWrBursts::2               111                       # Per bank write bursts
system.mem_ctrls.perBankWrBursts::3               128                       # Per bank write bursts
system.mem_ctrls.perBankWrBursts::4                64                       # Per bank write bursts
system.mem_ctrls.perBankWrBursts::5                 0                       # Per bank write bursts
system.mem_ctrls.perBankWrBursts::6                 0                       # Per bank write bursts
system.mem_ctrls.perBankWrBursts::7                 0                       # Per bank write bursts
system.mem_ctrls.perBankWrBursts::8                 0                       # Per bank write bursts
system.mem_ctrls.perBankWrBursts::9                 0                       # Per bank write bursts
system.mem_ctrls.perBankWrBursts::10               13                       # Per bank write bursts
system.mem_ctrls.perBankWrBursts::11               30                       # Per bank write bursts
system.mem_ctrls.perBankWrBursts::12              165                       # Per bank write bursts
system.mem_ctrls.perBankWrBursts::13                0                       # Per bank write bursts
system.mem_ctrls.perBankWrBursts::14                0                       # Per bank write bursts
system.mem_ctrls.perBankWrBursts::15                0                       # Per bank write bursts
system.mem_ctrls.numRdRetry                         0                       # Number of times read queue was full causing retry
system.mem_ctrls.numWrRetry                         0                       # Number of times write queue was full causing retry
system.mem_ctrls.totGap                   15267309000                       # Total gap between requests
system.mem_ctrls.readPktSize::0                     0                       # Read request sizes (log2)
system.mem_ctrls.readPktSize::1                     0                       # Read request sizes (log2)
system.mem_ctrls.readPktSize::2                     0                       # Read request sizes (log2)
system.mem_ctrls.readPktSize::3                     0                       # Read request sizes (log2)
system.mem_ctrls.readPktSize::4                     0                       # Read request sizes (log2)
system.mem_ctrls.readPktSize::5                     0                       # Read request sizes (log2)
system.mem_ctrls.readPktSize::6                197009                       # Read request sizes (log2)
system.mem_ctrls.writePktSize::0                    0                       # Write request sizes (log2)
system.mem_ctrls.writePktSize::1                    0                       # Write request sizes (log2)
system.mem_ctrls.writePktSize::2                    0                       # Write request sizes (log2)
system.mem_ctrls.writePktSize::3                    0                       # Write request sizes (log2)
system.mem_ctrls.writePktSize::4                    0                       # Write request sizes (log2)
system.mem_ctrls.writePktSize::5                    0                       # Write request sizes (log2)
system.mem_ctrls.writePktSize::6                  508                       # Write request sizes (log2)
system.mem_ctrls.rdQLenPdf::0                  147112                       # What read queue length does an incoming req see
system.mem_ctrls.rdQLenPdf::1                   46231                       # What read queue length does an incoming req see
system.mem_ctrls.rdQLenPdf::2                    3554                       # What read queue length does an incoming req see
system.mem_ctrls.rdQLenPdf::3                      56                       # What read queue length does an incoming req see
system.mem_ctrls.rdQLenPdf::4                       0                       # What read queue length does an incoming req see
system.mem_ctrls.rdQLenPdf::5                       0                       # What read queue length does an incoming req see
system.mem_ctrls.rdQLenPdf::6                       0                       # What read queue length does an incoming req see
system.mem_ctrls.rdQLenPdf::7                       0                       # What read queue length does an incoming req see
system.mem_ctrls.rdQLenPdf::8                       0                       # What read queue length does an incoming req see
system.mem_ctrls.rdQLenPdf::9                       0                       # What read queue length does an incoming req see
system.mem_ctrls.rdQLenPdf::10                      0                       # What read queue length does an incoming req see
system.mem_ctrls.rdQLenPdf::11                      0                       # What read queue length does an incoming req see
system.mem_ctrls.rdQLenPdf::12                      0                       # What read queue length does an incoming req see
system.mem_ctrls.rdQLenPdf::13                      0                       # What read queue length does an incoming req see
system.mem_ctrls.rdQLenPdf::14                      0                       # What read queue length does an incoming req see
system.mem_ctrls.rdQLenPdf::15                      0                       # What read queue length does an incoming req see
system.mem_ctrls.rdQLenPdf::16                      0                       # What read queue length does an incoming req see
system.mem_ctrls.rdQLenPdf::17                      0                       # What read queue length does an incoming req see
system.mem_ctrls.rdQLenPdf::18                      0                       # What read queue length does an incoming req see
system.mem_ctrls.rdQLenPdf::19                      0                       # What read queue length does an incoming req see
system.mem_ctrls.rdQLenPdf::20                      0                       # What read queue length does an incoming req see
system.mem_ctrls.rdQLenPdf::21                      0                       # What read queue length does an incoming req see
system.mem_ctrls.rdQLenPdf::22                      0                       # What read queue length does an incoming req see
system.mem_ctrls.rdQLenPdf::23                      0                       # What read queue length does an incoming req see
system.mem_ctrls.rdQLenPdf::24                      0                       # What read queue length does an incoming req see
system.mem_ctrls.rdQLenPdf::25                      0                       # What read queue length does an incoming req see
system.mem_ctrls.rdQLenPdf::26                      0                       # What read queue length does an incoming req see
system.mem_ctrls.rdQLenPdf::27                      0                       # What read queue length does an incoming req see
system.mem_ctrls.rdQLenPdf::28                      0                       # What read queue length does an incoming req see
system.mem_ctrls.rdQLenPdf::29                      0                       # What read queue length does an incoming req see
system.mem_ctrls.rdQLenPdf::30                      0                       # What read queue length does an incoming req see
system.mem_ctrls.rdQLenPdf::31                      0                       # What read queue length does an incoming req see
system.mem_ctrls.wrQLenPdf::0                       0                       # What write queue length does an incoming req see
system.mem_ctrls.wrQLenPdf::1                       0                       # What write queue length does an incoming req see
system.mem_ctrls.wrQLenPdf::2                       0                       # What write queue length does an incoming req see
system.mem_ctrls.wrQLenPdf::3                       0                       # What write queue length does an incoming req see
system.mem_ctrls.wrQLenPdf::4                       0                       # What write queue length does an incoming req see
system.mem_ctrls.wrQLenPdf::5                       0                       # What write queue length does an incoming req see
system.mem_ctrls.wrQLenPdf::6                       0                       # What write queue length does an incoming req see
system.mem_ctrls.wrQLenPdf::7                       0                       # What write queue length does an incoming req see
system.mem_ctrls.wrQLenPdf::8                       0                       # What write queue length does an incoming req see
system.mem_ctrls.wrQLenPdf::9                       0                       # What write queue length does an incoming req see
system.mem_ctrls.wrQLenPdf::10                      0                       # What write queue length does an incoming req see
system.mem_ctrls.wrQLenPdf::11                      0                       # What write queue length does an incoming req see
system.mem_ctrls.wrQLenPdf::12                      0                       # What write queue length does an incoming req see
system.mem_ctrls.wrQLenPdf::13                      0                       # What write queue length does an incoming req see
system.mem_ctrls.wrQLenPdf::14                      0                       # What write queue length does an incoming req see
system.mem_ctrls.wrQLenPdf::15                      0                       # What write queue length does an incoming req see
system.mem_ctrls.wrQLenPdf::16                      0                       # What write queue length does an incoming req see
system.mem_ctrls.wrQLenPdf::17                     32                       # What write queue length does an incoming req see
system.mem_ctrls.wrQLenPdf::18                     32                       # What write queue length does an incoming req see
system.mem_ctrls.wrQLenPdf::19                     31                       # What write queue length does an incoming req see
system.mem_ctrls.wrQLenPdf::20                     31                       # What write queue length does an incoming req see
system.mem_ctrls.wrQLenPdf::21                     31                       # What write queue length does an incoming req see
system.mem_ctrls.wrQLenPdf::22                     31                       # What write queue length does an incoming req see
system.mem_ctrls.wrQLenPdf::23                     31                       # What write queue length does an incoming req see
system.mem_ctrls.wrQLenPdf::24                     32                       # What write queue length does an incoming req see
system.mem_ctrls.wrQLenPdf::25                     32                       # What write queue length does an incoming req see
system.mem_ctrls.wrQLenPdf::26                     32                       # What write queue length does an incoming req see
system.mem_ctrls.wrQLenPdf::27                     32                       # What write queue length does an incoming req see
system.mem_ctrls.wrQLenPdf::28                     32                       # What write queue length does an incoming req see
system.mem_ctrls.wrQLenPdf::29                     32                       # What write queue length does an incoming req see
system.mem_ctrls.wrQLenPdf::30                     32                       # What write queue length does an incoming req see
system.mem_ctrls.wrQLenPdf::31                     32                       # What write queue length does an incoming req see
system.mem_ctrls.wrQLenPdf::32                     32                       # What write queue length does an incoming req see
system.mem_ctrls.wrQLenPdf::33                      0                       # What write queue length does an incoming req see
system.mem_ctrls.wrQLenPdf::34                      0                       # What write queue length does an incoming req see
system.mem_ctrls.wrQLenPdf::35                      0                       # What write queue length does an incoming req see
system.mem_ctrls.wrQLenPdf::36                      0                       # What write queue length does an incoming req see
system.mem_ctrls.wrQLenPdf::37                      0                       # What write queue length does an incoming req see
system.mem_ctrls.wrQLenPdf::38                      0                       # What write queue length does an incoming req see
system.mem_ctrls.wrQLenPdf::39                      0                       # What write queue length does an incoming req see
system.mem_ctrls.wrQLenPdf::40                      0                       # What write queue length does an incoming req see
system.mem_ctrls.wrQLenPdf::41                      0                       # What write queue length does an incoming req see
system.mem_ctrls.wrQLenPdf::42                      0                       # What write queue length does an incoming req see
system.mem_ctrls.wrQLenPdf::43                      0                       # What write queue length does an incoming req see
system.mem_ctrls.wrQLenPdf::44                      0                       # What write queue length does an incoming req see
system.mem_ctrls.wrQLenPdf::45                      0                       # What write queue length does an incoming req see
system.mem_ctrls.wrQLenPdf::46                      0                       # What write queue length does an incoming req see
system.mem_ctrls.wrQLenPdf::47                      0                       # What write queue length does an incoming req see
system.mem_ctrls.wrQLenPdf::48                      0                       # What write queue length does an incoming req see
system.mem_ctrls.wrQLenPdf::49                      0                       # What write queue length does an incoming req see
system.mem_ctrls.wrQLenPdf::50                      0                       # What write queue length does an incoming req see
system.mem_ctrls.wrQLenPdf::51                      0                       # What write queue length does an incoming req see
system.mem_ctrls.wrQLenPdf::52                      0                       # What write queue length does an incoming req see
system.mem_ctrls.wrQLenPdf::53                      0                       # What write queue length does an incoming req see
system.mem_ctrls.wrQLenPdf::54                      0                       # What write queue length does an incoming req see
system.mem_ctrls.wrQLenPdf::55                      0                       # What write queue length does an incoming req see
system.mem_ctrls.wrQLenPdf::56                      0                       # What write queue length does an incoming req see
system.mem_ctrls.wrQLenPdf::57                      0                       # What write queue length does an incoming req see
system.mem_ctrls.wrQLenPdf::58                      0                       # What write queue length does an incoming req see
system.mem_ctrls.wrQLenPdf::59                      0                       # What write queue length does an incoming req see
system.mem_ctrls.wrQLenPdf::60                      0                       # What write queue length does an incoming req see
system.mem_ctrls.wrQLenPdf::61                      0                       # What write queue length does an incoming req see
system.mem_ctrls.wrQLenPdf::62                      0                       # What write queue length does an incoming req see
system.mem_ctrls.wrQLenPdf::63                      0                       # What write queue length does an incoming req see
system.mem_ctrls.bytesPerActivate::samples        97909                       # Bytes accessed per row activation
system.mem_ctrls.bytesPerActivate::mean    129.093587                       # Bytes accessed per row activation
system.mem_ctrls.bytesPerActivate::gmean   110.883899                       # Bytes accessed per row activation
system.mem_ctrls.bytesPerActivate::stdev    77.504074                       # Bytes accessed per row activation
system.mem_ctrls.bytesPerActivate::0-127        41906     42.80%     42.80% # Bytes accessed per row activation
system.mem_ctrls.bytesPerActivate::128-255        44843     45.80%     88.60% # Bytes accessed per row activation
system.mem_ctrls.bytesPerActivate::256-383         9625      9.83%     98.43% # Bytes accessed per row activation
system.mem_ctrls.bytesPerActivate::384-511         1365      1.39%     99.83% # Bytes accessed per row activation
system.mem_ctrls.bytesPerActivate::512-639          128      0.13%     99.96% # Bytes accessed per row activation
system.mem_ctrls.bytesPerActivate::640-767           17      0.02%     99.97% # Bytes accessed per row activation
system.mem_ctrls.bytesPerActivate::768-895            7      0.01%     99.98% # Bytes accessed per row activation
system.mem_ctrls.bytesPerActivate::896-1023            8      0.01%     99.99% # Bytes accessed per row activation
system.mem_ctrls.bytesPerActivate::1024-1151           10      0.01%    100.00% # Bytes accessed per row activation
system.mem_ctrls.bytesPerActivate::total        97909                       # Bytes accessed per row activation
system.mem_ctrls.rdPerTurnAround::samples           32                       # Reads before turning the bus around for writes
system.mem_ctrls.rdPerTurnAround::mean    6235.250000                       # Reads before turning the bus around for writes
system.mem_ctrls.rdPerTurnAround::gmean   6102.799118                       # Reads before turning the bus around for writes
system.mem_ctrls.rdPerTurnAround::stdev   1313.836809                       # Reads before turning the bus around for writes
system.mem_ctrls.rdPerTurnAround::3584-4095            1      3.12%      3.12% # Reads before turning the bus around for writes
system.mem_ctrls.rdPerTurnAround::4096-4607            2      6.25%      9.38% # Reads before turning the bus around for writes
system.mem_ctrls.rdPerTurnAround::4608-5119            4     12.50%     21.88% # Reads before turning the bus around for writes
system.mem_ctrls.rdPerTurnAround::5120-5631            3      9.38%     31.25% # Reads before turning the bus around for writes
system.mem_ctrls.rdPerTurnAround::5632-6143            5     15.62%     46.88% # Reads before turning the bus around for writes
system.mem_ctrls.rdPerTurnAround::6144-6655            8     25.00%     71.88% # Reads before turning the bus around for writes
system.mem_ctrls.rdPerTurnAround::6656-7167            3      9.38%     81.25% # Reads before turning the bus around for writes
system.mem_ctrls.rdPerTurnAround::7168-7679            1      3.12%     84.38% # Reads before turning the bus around for writes
system.mem_ctrls.rdPerTurnAround::7680-8191            2      6.25%     90.62% # Reads before turning the bus around for writes
system.mem_ctrls.rdPerTurnAround::8192-8703            1      3.12%     93.75% # Reads before turning the bus around for writes
system.mem_ctrls.rdPerTurnAround::8704-9215            1      3.12%     96.88% # Reads before turning the bus around for writes
system.mem_ctrls.rdPerTurnAround::9216-9727            1      3.12%    100.00% # Reads before turning the bus around for writes
system.mem_ctrls.rdPerTurnAround::total            32                       # Reads before turning the bus around for writes
system.mem_ctrls.wrPerTurnAround::samples           32                       # Writes before turning the bus around for reads
system.mem_ctrls.wrPerTurnAround::mean             16                       # Writes before turning the bus around for reads
system.mem_ctrls.wrPerTurnAround::gmean     16.000000                       # Writes before turning the bus around for reads
system.mem_ctrls.wrPerTurnAround::16               32    100.00%    100.00% # Writes before turning the bus around for reads
system.mem_ctrls.wrPerTurnAround::total            32                       # Writes before turning the bus around for reads
system.mem_ctrls.totQLat                   4760975750                       # Total ticks spent queuing
system.mem_ctrls.totMemAccLat              8453844500                       # Total ticks spent from burst creation until serviced by the DRAM
system.mem_ctrls.totBusLat                  984765000                       # Total ticks spent in databus transfers
system.mem_ctrls.avgQLat                     24173.16                       # Average queueing delay per DRAM burst
system.mem_ctrls.avgBusLat                    5000.00                       # Average bus latency per DRAM burst
system.mem_ctrls.avgMemAccLat                42923.16                       # Average memory access latency per DRAM burst
system.mem_ctrls.avgRdBW                       825.62                       # Average DRAM read bandwidth in MiByte/s
system.mem_ctrls.avgWrBW                         2.15                       # Average achieved write bandwidth in MiByte/s
system.mem_ctrls.avgRdBWSys                    825.85                       # Average system read bandwidth in MiByte/s
system.mem_ctrls.avgWrBWSys                      2.13                       # Average system write bandwidth in MiByte/s
system.mem_ctrls.peakBW                      12800.00                       # Theoretical peak bandwidth in MiByte/s
system.mem_ctrls.busUtil                         6.47                       # Data bus utilization in percentage
system.mem_ctrls.busUtilRead                     6.45                       # Data bus utilization in percentage for reads
system.mem_ctrls.busUtilWrite                    0.02                       # Data bus utilization in percentage for writes
system.mem_ctrls.avgRdQLen                       1.34                       # Average read queue length when enqueuing
system.mem_ctrls.avgWrQLen                      25.22                       # Average write queue length when enqueuing
system.mem_ctrls.readRowHits                    99118                       # Number of row buffer hits during reads
system.mem_ctrls.writeRowHits                     447                       # Number of row buffer hits during writes
system.mem_ctrls.readRowHitRate                 50.33                       # Row buffer hit rate for reads
system.mem_ctrls.writeRowHitRate                88.17                       # Row buffer hit rate for writes
system.mem_ctrls.avgGap                      77296.18                       # Average gap between requests
system.mem_ctrls.pageHitRate                    50.42                       # Row buffer hit rate, read and write combined
system.mem_ctrls_0.actEnergy                345690240                       # Energy for activate commands per rank (pJ)
system.mem_ctrls_0.preEnergy                183731130                       # Energy for precharge commands per rank (pJ)
system.mem_ctrls_0.readEnergy               695100420                       # Energy for read commands per rank (pJ)
system.mem_ctrls_0.writeEnergy                1586880                       # Energy for write commands per rank (pJ)
system.mem_ctrls_0.refreshEnergy         1204694400.000000                       # Energy for refresh commands per rank (pJ)
system.mem_ctrls_0.actBackEnergy           1621030980                       # Energy for active background per rank (pJ)
system.mem_ctrls_0.preBackEnergy             24738240                       # Energy for precharge background per rank (pJ)
system.mem_ctrls_0.actPowerDownEnergy      5197073610                       # Energy for active power-down per rank (pJ)
system.mem_ctrls_0.prePowerDownEnergy        96360000                       # Energy for precharge power-down per rank (pJ)
system.mem_ctrls_0.selfRefreshEnergy                0                       # Energy for self refresh per rank (pJ)
system.mem_ctrls_0.totalEnergy             9370005900                       # Total energy per rank (pJ)
system.mem_ctrls_0.averagePower            613.728611                       # Core power per rank (mW)
system.mem_ctrls_0.totalIdleTime          11648593500                       # Total Idle time Per DRAM Rank
system.mem_ctrls_0.memoryStateTime::IDLE     10122000                       # Time in different power states
system.mem_ctrls_0.memoryStateTime::REF     509600000                       # Time in different power states
system.mem_ctrls_0.memoryStateTime::SREF            0                       # Time in different power states
system.mem_ctrls_0.memoryStateTime::PRE_PDN    250752000                       # Time in different power states
system.mem_ctrls_0.memoryStateTime::ACT    3099028625                       # Time in different power states
system.mem_ctrls_0.memoryStateTime::ACT_PDN  11397841500                       # Time in different power states
system.mem_ctrls_1.actEnergy                353315760                       # Energy for activate commands per rank (pJ)
system.mem_ctrls_1.preEnergy                187803165                       # Energy for precharge commands per rank (pJ)
system.mem_ctrls_1.readEnergy               711144000                       # Energy for read commands per rank (pJ)
system.mem_ctrls_1.writeEnergy                1085760                       # Energy for write commands per rank (pJ)
system.mem_ctrls_1.refreshEnergy         1205309040.000000                       # Energy for refresh commands per rank (pJ)
system.mem_ctrls_1.actBackEnergy           1653532380                       # Energy for active background per rank (pJ)
system.mem_ctrls_1.preBackEnergy             24538080                       # Energy for precharge background per rank (pJ)
system.mem_ctrls_1.actPowerDownEnergy      5142082290                       # Energy for active power-down per rank (pJ)
system.mem_ctrls_1.prePowerDownEnergy       115499040                       # Energy for precharge power-down per rank (pJ)
system.mem_ctrls_1.selfRefreshEnergy                0                       # Energy for self refresh per rank (pJ)
system.mem_ctrls_1.totalEnergy             9394309515                       # Total energy per rank (pJ)
system.mem_ctrls_1.averagePower            615.320480                       # Core power per rank (mW)
system.mem_ctrls_1.totalIdleTime          11577855250                       # Total Idle time Per DRAM Rank
system.mem_ctrls_1.memoryStateTime::IDLE      9588000                       # Time in different power states
system.mem_ctrls_1.memoryStateTime::REF     509860000                       # Time in different power states
system.mem_ctrls_1.memoryStateTime::SREF            0                       # Time in different power states
system.mem_ctrls_1.memoryStateTime::PRE_PDN    300933250                       # Time in different power states
system.mem_ctrls_1.memoryStateTime::ACT    3169878250                       # Time in different power states
system.mem_ctrls_1.memoryStateTime::ACT_PDN  11277084625                       # Time in different power states
system.pwrStateResidencyTicks::UNDEFINED  15267344125                       # Cumulative time (in ticks) in various power states
system.cpu0.branchPred.lookups                1746429                       # Number of BP lookups
system.cpu0.branchPred.condPredicted          1746429                       # Number of conditional branches predicted
system.cpu0.branchPred.condIncorrect            80202                       # Number of conditional branches incorrect
system.cpu0.branchPred.BTBLookups             1447070                       # Number of BTB lookups
system.cpu0.branchPred.BTBHits                      0                       # Number of BTB hits
system.cpu0.branchPred.BTBCorrect                   0                       # Number of correct BTB predictions (this stat may not work properly.
system.cpu0.branchPred.BTBHitPct             0.000000                       # BTB Hit Percentage
system.cpu0.branchPred.usedRAS                  57770                       # Number of times the RAS was used to get a target.
system.cpu0.branchPred.RASInCorrect              8514                       # Number of incorrect RAS predictions.
system.cpu0.branchPred.indirectLookups        1447070                       # Number of indirect predictor lookups.
system.cpu0.branchPred.indirectHits            718083                       # Number of indirect target hits.
system.cpu0.branchPred.indirectMisses          728987                       # Number of indirect misses.
system.cpu0.branchPredindirectMispredicted        29579                       # Number of mispredicted indirect branches.
system.cpu_voltage_domain.voltage                   1                       # Voltage in Volts
system.cpu_clk_domain.clock                       500                       # Clock period in ticks
system.cpu0.dtb.walker.pwrStateResidencyTicks::UNDEFINED  15267344125                       # Cumulative time (in ticks) in various power states
system.cpu0.dtb.rdAccesses                     805326                       # TLB accesses on read requests
system.cpu0.dtb.wrAccesses                      64945                       # TLB accesses on write requests
system.cpu0.dtb.rdMisses                       146943                       # TLB misses on read requests
system.cpu0.dtb.wrMisses                         1125                       # TLB misses on write requests
system.cpu0.apic_clk_domain.clock                8000                       # Clock period in ticks
system.cpu0.interrupts.pwrStateResidencyTicks::UNDEFINED  15267344125                       # Cumulative time (in ticks) in various power states
system.cpu0.itb.walker.pwrStateResidencyTicks::UNDEFINED  15267344125                       # Cumulative time (in ticks) in various power states
system.cpu0.itb.rdAccesses                          0                       # TLB accesses on read requests
system.cpu0.itb.wrAccesses                    1391338                       # TLB accesses on write requests
system.cpu0.itb.rdMisses                            0                       # TLB misses on read requests
system.cpu0.itb.wrMisses                         6055                       # TLB misses on write requests
system.cpu0.workload.numSyscalls                    0                       # Number of system calls
system.cpu0.pwrStateResidencyTicks::ON    15267344125                       # Cumulative time (in ticks) in various power states
system.cpu0.numCycles                        30534688                       # number of cpu cycles simulated
system.cpu0.numWorkItemsStarted                     0                       # number of work items this cpu started
system.cpu0.numWorkItemsCompleted                   0                       # number of work items this cpu completed
system.cpu0.fetch.icacheStallCycles           1428709                       # Number of cycles fetch is stalled on an Icache miss
system.cpu0.fetch.Insts                       5194266                       # Number of instructions fetch has processed
system.cpu0.fetch.Branches                    1746429                       # Number of branches that fetch encountered
system.cpu0.fetch.predictedBranches            775853                       # Number of branches that fetch has predicted taken
system.cpu0.fetch.Cycles                     28871019                       # Number of cycles fetch has run and was not squashing or blocked
system.cpu0.fetch.SquashCycles                 164154                       # Number of cycles fetch has spent squashing
system.cpu0.fetch.TlbCycles                      4442                       # Number of cycles fetch has spent waiting for tlb
system.cpu0.fetch.MiscStallCycles                1270                       # Number of cycles fetch has spent waiting on interrupts, or bad addresses, or out of MSHRs
system.cpu0.fetch.PendingTrapStallCycles        58207                       # Number of stall cycles due to pending traps
system.cpu0.fetch.CacheLines                  1385283                       # Number of cache lines fetched
system.cpu0.fetch.IcacheSquashes                10219                       # Number of outstanding Icache misses that were squashed
system.cpu0.fetch.ItlbSquashes                      9                       # Number of outstanding ITLB misses that were squashed
system.cpu0.fetch.rateDist::samples          30445724                       # Number of instructions fetched each cycle (Total)
system.cpu0.fetch.rateDist::mean             0.344009                       # Number of instructions fetched each cycle (Total)
system.cpu0.fetch.rateDist::stdev            1.480118                       # Number of instructions fetched each cycle (Total)
system.cpu0.fetch.rateDist::underflows              0      0.00%      0.00% # Number of instructions fetched each cycle (Total)
system.cpu0.fetch.rateDist::0                28461643     93.48%     93.48% # Number of instructions fetched each cycle (Total)
system.cpu0.fetch.rateDist::1                   30250      0.10%     93.58% # Number of instructions fetched each cycle (Total)
system.cpu0.fetch.rateDist::2                  666159      2.19%     95.77% # Number of instructions fetched each cycle (Total)
system.cpu0.fetch.rateDist::3                   34109      0.11%     95.88% # Number of instructions fetched each cycle (Total)
system.cpu0.fetch.rateDist::4                  141112      0.46%     96.35% # Number of instructions fetched each cycle (Total)
system.cpu0.fetch.rateDist::5                   83369      0.27%     96.62% # Number of instructions fetched each cycle (Total)
system.cpu0.fetch.rateDist::6                   87827      0.29%     96.91% # Number of instructions fetched each cycle (Total)
system.cpu0.fetch.rateDist::7                   29601      0.10%     97.01% # Number of instructions fetched each cycle (Total)
system.cpu0.fetch.rateDist::8                  911654      2.99%    100.00% # Number of instructions fetched each cycle (Total)
system.cpu0.fetch.rateDist::overflows               0      0.00%    100.00% # Number of instructions fetched each cycle (Total)
system.cpu0.fetch.rateDist::min_value               0                       # Number of instructions fetched each cycle (Total)
system.cpu0.fetch.rateDist::max_value               8                       # Number of instructions fetched each cycle (Total)
system.cpu0.fetch.rateDist::total            30445724                       # Number of instructions fetched each cycle (Total)
system.cpu0.fetch.branchRate                 0.057195                       # Number of branch fetches per cycle
system.cpu0.fetch.rate                       0.170110                       # Number of inst fetches per cycle
system.cpu0.decode.IdleCycles                  738543                       # Number of cycles decode is idle
system.cpu0.decode.BlockedCycles             28311113                       # Number of cycles decode is blocked
system.cpu0.decode.RunCycles                   994379                       # Number of cycles decode is running
system.cpu0.decode.UnblockCycles               319612                       # Number of cycles decode is unblocking
system.cpu0.decode.SquashCycles                 82077                       # Number of cycles decode is squashing
system.cpu0.decode.DecodedInsts               8553757                       # Number of instructions handled by decode
system.cpu0.rename.SquashCycles                 82077                       # Number of cycles rename is squashing
system.cpu0.rename.IdleCycles                  840857                       # Number of cycles rename is idle
system.cpu0.rename.BlockCycles               27029968                       # Number of cycles rename is blocking
system.cpu0.rename.serializeStallCycles         12953                       # count of cycles rename stalled for serializing inst
system.cpu0.rename.RunCycles                  1131359                       # Number of cycles rename is running
system.cpu0.rename.UnblockCycles              1348510                       # Number of cycles rename is unblocking
system.cpu0.rename.RenamedInsts               8176481                       # Number of instructions processed by rename
system.cpu0.rename.ROBFullEvents                85185                       # Number of times rename has blocked due to ROB full
system.cpu0.rename.IQFullEvents               1000060                       # Number of times rename has blocked due to IQ full
system.cpu0.rename.LQFullEvents                294006                       # Number of times rename has blocked due to LQ full
system.cpu0.rename.SQFullEvents                   313                       # Number of times rename has blocked due to SQ full
system.cpu0.rename.RenamedOperands            9738513                       # Number of destination operands rename has renamed
system.cpu0.rename.RenameLookups             22557024                       # Number of register rename lookups that rename has made
system.cpu0.rename.int_rename_lookups        10842905                       # Number of integer rename lookups
system.cpu0.rename.fp_rename_lookups            44021                       # Number of floating rename lookups
system.cpu0.rename.CommittedMaps              3111567                       # Number of HB maps that are committed
system.cpu0.rename.UndoneMaps                 6626947                       # Number of HB maps that are undone due to squashing
system.cpu0.rename.serializingInsts               278                       # count of serializing insts renamed
system.cpu0.rename.tempSerializingInsts           341                       # count of temporary serializing insts renamed
system.cpu0.rename.skidInsts                  1994313                       # count of insts added to the skid buffer
system.cpu0.memDep0.insertedLoads             1437639                       # Number of loads inserted to the mem dependence unit.
system.cpu0.memDep0.insertedStores              98112                       # Number of stores inserted to the mem dependence unit.
system.cpu0.memDep0.conflictingLoads             5356                       # Number of conflicting loads.
system.cpu0.memDep0.conflictingStores            5788                       # Number of conflicting stores.
system.cpu0.iq.iqInstsAdded                   7707683                       # Number of instructions added to the IQ (excludes non-spec)
system.cpu0.iq.iqNonSpecInstsAdded               6085                       # Number of non-speculative instructions added to the IQ
system.cpu0.iq.iqInstsIssued                  5470780                       # Number of instructions issued
system.cpu0.iq.iqSquashedInstsIssued             7157                       # Number of squashed instructions issued
system.cpu0.iq.iqSquashedInstsExamined        5121416                       # Number of squashed instructions iterated over during squash; mainly for profiling
system.cpu0.iq.iqSquashedOperandsExamined     10313154                       # Number of squashed operands that are examined and possibly removed from graph
system.cpu0.iq.iqSquashedNonSpecRemoved          6085                       # Number of squashed non-spec instructions that were removed
system.cpu0.iq.issued_per_cycle::samples     30445724                       # Number of insts issued each cycle
system.cpu0.iq.issued_per_cycle::mean        0.179690                       # Number of insts issued each cycle
system.cpu0.iq.issued_per_cycle::stdev       0.785566                       # Number of insts issued each cycle
system.cpu0.iq.issued_per_cycle::underflows            0      0.00%      0.00% # Number of insts issued each cycle
system.cpu0.iq.issued_per_cycle::0           28281885     92.89%     92.89% # Number of insts issued each cycle
system.cpu0.iq.issued_per_cycle::1             822733      2.70%     95.60% # Number of insts issued each cycle
system.cpu0.iq.issued_per_cycle::2             446791      1.47%     97.06% # Number of insts issued each cycle
system.cpu0.iq.issued_per_cycle::3             301773      0.99%     98.05% # Number of insts issued each cycle
system.cpu0.iq.issued_per_cycle::4             339167      1.11%     99.17% # Number of insts issued each cycle
system.cpu0.iq.issued_per_cycle::5             106533      0.35%     99.52% # Number of insts issued each cycle
system.cpu0.iq.issued_per_cycle::6              90821      0.30%     99.82% # Number of insts issued each cycle
system.cpu0.iq.issued_per_cycle::7              33281      0.11%     99.93% # Number of insts issued each cycle
system.cpu0.iq.issued_per_cycle::8              22740      0.07%    100.00% # Number of insts issued each cycle
system.cpu0.iq.issued_per_cycle::overflows            0      0.00%    100.00% # Number of insts issued each cycle
system.cpu0.iq.issued_per_cycle::min_value            0                       # Number of insts issued each cycle
system.cpu0.iq.issued_per_cycle::max_value            8                       # Number of insts issued each cycle
system.cpu0.iq.issued_per_cycle::total       30445724                       # Number of insts issued each cycle
system.cpu0.iq.fu_full::No_OpClass                  0      0.00%      0.00% # attempts to use FU when none available
system.cpu0.iq.fu_full::IntAlu                  13287     67.44%     67.44% # attempts to use FU when none available
system.cpu0.iq.fu_full::IntMult                     0      0.00%     67.44% # attempts to use FU when none available
system.cpu0.iq.fu_full::IntDiv                      0      0.00%     67.44% # attempts to use FU when none available
system.cpu0.iq.fu_full::FloatAdd                 1346      6.83%     74.27% # attempts to use FU when none available
system.cpu0.iq.fu_full::FloatCmp                    0      0.00%     74.27% # attempts to use FU when none available
system.cpu0.iq.fu_full::FloatCvt                    0      0.00%     74.27% # attempts to use FU when none available
system.cpu0.iq.fu_full::FloatMult                   0      0.00%     74.27% # attempts to use FU when none available
system.cpu0.iq.fu_full::FloatMultAcc                0      0.00%     74.27% # attempts to use FU when none available
system.cpu0.iq.fu_full::FloatDiv                    0      0.00%     74.27% # attempts to use FU when none available
system.cpu0.iq.fu_full::FloatMisc                   0      0.00%     74.27% # attempts to use FU when none available
system.cpu0.iq.fu_full::FloatSqrt                   0      0.00%     74.27% # attempts to use FU when none available
system.cpu0.iq.fu_full::SimdAdd                     0      0.00%     74.27% # attempts to use FU when none available
system.cpu0.iq.fu_full::SimdAddAcc                  0      0.00%     74.27% # attempts to use FU when none available
system.cpu0.iq.fu_full::SimdAlu                     0      0.00%     74.27% # attempts to use FU when none available
system.cpu0.iq.fu_full::SimdCmp                     0      0.00%     74.27% # attempts to use FU when none available
system.cpu0.iq.fu_full::SimdCvt                     0      0.00%     74.27% # attempts to use FU when none available
system.cpu0.iq.fu_full::SimdMisc                    0      0.00%     74.27% # attempts to use FU when none available
system.cpu0.iq.fu_full::SimdMult                    0      0.00%     74.27% # attempts to use FU when none available
system.cpu0.iq.fu_full::SimdMultAcc                 0      0.00%     74.27% # attempts to use FU when none available
system.cpu0.iq.fu_full::SimdShift                   0      0.00%     74.27% # attempts to use FU when none available
system.cpu0.iq.fu_full::SimdShiftAcc                0      0.00%     74.27% # attempts to use FU when none available
system.cpu0.iq.fu_full::SimdSqrt                    0      0.00%     74.27% # attempts to use FU when none available
system.cpu0.iq.fu_full::SimdFloatAdd                0      0.00%     74.27% # attempts to use FU when none available
system.cpu0.iq.fu_full::SimdFloatAlu                0      0.00%     74.27% # attempts to use FU when none available
system.cpu0.iq.fu_full::SimdFloatCmp                0      0.00%     74.27% # attempts to use FU when none available
system.cpu0.iq.fu_full::SimdFloatCvt                0      0.00%     74.27% # attempts to use FU when none available
system.cpu0.iq.fu_full::SimdFloatDiv                0      0.00%     74.27% # attempts to use FU when none available
system.cpu0.iq.fu_full::SimdFloatMisc               0      0.00%     74.27% # attempts to use FU when none available
system.cpu0.iq.fu_full::SimdFloatMult               0      0.00%     74.27% # attempts to use FU when none available
system.cpu0.iq.fu_full::SimdFloatMultAcc            0      0.00%     74.27% # attempts to use FU when none available
system.cpu0.iq.fu_full::SimdFloatSqrt               0      0.00%     74.27% # attempts to use FU when none available
system.cpu0.iq.fu_full::MemRead                  4566     23.18%     97.45% # attempts to use FU when none available
system.cpu0.iq.fu_full::MemWrite                  338      1.72%     99.16% # attempts to use FU when none available
system.cpu0.iq.fu_full::FloatMemRead              134      0.68%     99.84% # attempts to use FU when none available
system.cpu0.iq.fu_full::FloatMemWrite              31      0.16%    100.00% # attempts to use FU when none available
system.cpu0.iq.fu_full::IprAccess                   0      0.00%    100.00% # attempts to use FU when none available
system.cpu0.iq.fu_full::InstPrefetch                0      0.00%    100.00% # attempts to use FU when none available
system.cpu0.iq.FU_type_0::No_OpClass            22290      0.41%      0.41% # Type of FU issued
system.cpu0.iq.FU_type_0::IntAlu              4500583     82.27%     82.67% # Type of FU issued
system.cpu0.iq.FU_type_0::IntMult                1702      0.03%     82.70% # Type of FU issued
system.cpu0.iq.FU_type_0::IntDiv                11620      0.21%     82.92% # Type of FU issued
system.cpu0.iq.FU_type_0::FloatAdd              16586      0.30%     83.22% # Type of FU issued
system.cpu0.iq.FU_type_0::FloatCmp                  0      0.00%     83.22% # Type of FU issued
system.cpu0.iq.FU_type_0::FloatCvt                  0      0.00%     83.22% # Type of FU issued
system.cpu0.iq.FU_type_0::FloatMult                 0      0.00%     83.22% # Type of FU issued
system.cpu0.iq.FU_type_0::FloatMultAcc              0      0.00%     83.22% # Type of FU issued
system.cpu0.iq.FU_type_0::FloatDiv                  0      0.00%     83.22% # Type of FU issued
system.cpu0.iq.FU_type_0::FloatMisc                 0      0.00%     83.22% # Type of FU issued
system.cpu0.iq.FU_type_0::FloatSqrt                 0      0.00%     83.22% # Type of FU issued
system.cpu0.iq.FU_type_0::SimdAdd                   0      0.00%     83.22% # Type of FU issued
system.cpu0.iq.FU_type_0::SimdAddAcc                0      0.00%     83.22% # Type of FU issued
system.cpu0.iq.FU_type_0::SimdAlu                   0      0.00%     83.22% # Type of FU issued
system.cpu0.iq.FU_type_0::SimdCmp                   0      0.00%     83.22% # Type of FU issued
system.cpu0.iq.FU_type_0::SimdCvt                   0      0.00%     83.22% # Type of FU issued
system.cpu0.iq.FU_type_0::SimdMisc                  0      0.00%     83.22% # Type of FU issued
system.cpu0.iq.FU_type_0::SimdMult                  0      0.00%     83.22% # Type of FU issued
system.cpu0.iq.FU_type_0::SimdMultAcc               0      0.00%     83.22% # Type of FU issued
system.cpu0.iq.FU_type_0::SimdShift                 0      0.00%     83.22% # Type of FU issued
system.cpu0.iq.FU_type_0::SimdShiftAcc              0      0.00%     83.22% # Type of FU issued
system.cpu0.iq.FU_type_0::SimdSqrt                  0      0.00%     83.22% # Type of FU issued
system.cpu0.iq.FU_type_0::SimdFloatAdd              0      0.00%     83.22% # Type of FU issued
system.cpu0.iq.FU_type_0::SimdFloatAlu              0      0.00%     83.22% # Type of FU issued
system.cpu0.iq.FU_type_0::SimdFloatCmp              0      0.00%     83.22% # Type of FU issued
system.cpu0.iq.FU_type_0::SimdFloatCvt              0      0.00%     83.22% # Type of FU issued
system.cpu0.iq.FU_type_0::SimdFloatDiv              0      0.00%     83.22% # Type of FU issued
system.cpu0.iq.FU_type_0::SimdFloatMisc             0      0.00%     83.22% # Type of FU issued
system.cpu0.iq.FU_type_0::SimdFloatMult             0      0.00%     83.22% # Type of FU issued
system.cpu0.iq.FU_type_0::SimdFloatMultAcc            0      0.00%     83.22% # Type of FU issued
system.cpu0.iq.FU_type_0::SimdFloatSqrt             0      0.00%     83.22% # Type of FU issued
system.cpu0.iq.FU_type_0::MemRead              844423     15.44%     98.66% # Type of FU issued
system.cpu0.iq.FU_type_0::MemWrite              70459      1.29%     99.94% # Type of FU issued
system.cpu0.iq.FU_type_0::FloatMemRead           3002      0.05%    100.00% # Type of FU issued
system.cpu0.iq.FU_type_0::FloatMemWrite           115      0.00%    100.00% # Type of FU issued
system.cpu0.iq.FU_type_0::IprAccess                 0      0.00%    100.00% # Type of FU issued
system.cpu0.iq.FU_type_0::InstPrefetch              0      0.00%    100.00% # Type of FU issued
system.cpu0.iq.FU_type_0::total               5470780                       # Type of FU issued
system.cpu0.iq.rate                          0.179166                       # Inst issue rate
system.cpu0.iq.fu_busy_cnt                      19702                       # FU busy when requested
system.cpu0.iq.fu_busy_rate                  0.003601                       # FU busy rate (busy events/executed inst)
system.cpu0.iq.int_inst_queue_reads          41372960                       # Number of integer instruction queue reads
system.cpu0.iq.int_inst_queue_writes         12798164                       # Number of integer instruction queue writes
system.cpu0.iq.int_inst_queue_wakeup_accesses      5218099                       # Number of integer instruction queue wakeup accesses
system.cpu0.iq.fp_inst_queue_reads              41183                       # Number of floating instruction queue reads
system.cpu0.iq.fp_inst_queue_writes             37026                       # Number of floating instruction queue writes
system.cpu0.iq.fp_inst_queue_wakeup_accesses        18073                       # Number of floating instruction queue wakeup accesses
system.cpu0.iq.vec_inst_queue_reads                 0                       # Number of vector instruction queue reads
system.cpu0.iq.vec_inst_queue_writes                0                       # Number of vector instruction queue writes
system.cpu0.iq.vec_inst_queue_wakeup_accesses            0                       # Number of vector instruction queue wakeup accesses
system.cpu0.iq.int_alu_accesses               5446968                       # Number of integer alu accesses
system.cpu0.iq.fp_alu_accesses                  21224                       # Number of floating point alu accesses
system.cpu0.iq.vec_alu_accesses                     0                       # Number of vector alu accesses
system.cpu0.iew.lsq.thread0.forwLoads            5049                       # Number of loads that had data forwarded from stores
system.cpu0.iew.lsq.thread0.invAddrLoads            0                       # Number of loads ignored due to an invalid address
system.cpu0.iew.lsq.thread0.squashedLoads       958754                       # Number of loads squashed
system.cpu0.iew.lsq.thread0.ignoredResponses          201                       # Number of memory responses ignored because the instruction is squashed
system.cpu0.iew.lsq.thread0.memOrderViolation            6                       # Number of memory ordering violations
system.cpu0.iew.lsq.thread0.squashedStores        64729                       # Number of stores squashed
system.cpu0.iew.lsq.thread0.invAddrSwpfs            0                       # Number of software prefetches ignored due to an invalid address
system.cpu0.iew.lsq.thread0.blockedLoads            0                       # Number of blocked loads due to partial load-store forwarding
system.cpu0.iew.lsq.thread0.rescheduledLoads           41                       # Number of loads that were rescheduled
system.cpu0.iew.lsq.thread0.cacheBlocked         1464                       # Number of times an access to memory failed due to the cache being blocked
system.cpu0.iew.iewIdleCycles                       0                       # Number of cycles IEW is idle
system.cpu0.iew.iewSquashCycles                 82077                       # Number of cycles IEW is squashing
system.cpu0.iew.iewBlockCycles               24871605                       # Number of cycles IEW is blocking
system.cpu0.iew.iewUnblockCycles               290566                       # Number of cycles IEW is unblocking
system.cpu0.iew.iewDispatchedInsts            7713768                       # Number of instructions dispatched to IQ
system.cpu0.iew.iewDispSquashedInsts             5899                       # Number of squashed instructions skipped by dispatch
system.cpu0.iew.iewDispLoadInsts              1437639                       # Number of dispatched load instructions
system.cpu0.iew.iewDispStoreInsts               98112                       # Number of dispatched store instructions
system.cpu0.iew.iewDispNonSpecInsts              2213                       # Number of dispatched non-speculative instructions
system.cpu0.iew.iewIQFullEvents                 25132                       # Number of times the IQ has become full, causing a stall
system.cpu0.iew.iewLSQFullEvents                89021                       # Number of times the LSQ has become full, causing a stall
system.cpu0.iew.memOrderViolationEvents             6                       # Number of memory order violations
system.cpu0.iew.predictedTakenIncorrect         39980                       # Number of branches that were predicted taken incorrectly
system.cpu0.iew.predictedNotTakenIncorrect        51922                       # Number of branches that were predicted not taken incorrectly
system.cpu0.iew.branchMispredicts               91902                       # Number of branch mispredicts detected at execute
system.cpu0.iew.iewExecutedInsts              5358163                       # Number of executed instructions
system.cpu0.iew.iewExecLoadInsts               805035                       # Number of load instructions executed
system.cpu0.iew.iewExecSquashedInsts           112617                       # Number of squashed instructions skipped in execute
system.cpu0.iew.exec_swp                            0                       # number of swp insts executed
system.cpu0.iew.exec_nop                            0                       # number of nop insts executed
system.cpu0.iew.exec_refs                      869966                       # number of memory reference insts executed
system.cpu0.iew.exec_branches                  613499                       # Number of branches executed
system.cpu0.iew.exec_stores                     64931                       # Number of stores executed
system.cpu0.iew.exec_rate                    0.175478                       # Inst execution rate
system.cpu0.iew.wb_sent                       5258014                       # cumulative count of insts sent to commit
system.cpu0.iew.wb_count                      5236172                       # cumulative count of insts written-back
system.cpu0.iew.wb_producers                  3905287                       # num instructions producing a value
system.cpu0.iew.wb_consumers                  6115994                       # num instructions consuming a value
system.cpu0.iew.wb_rate                      0.171483                       # insts written-back per cycle
system.cpu0.iew.wb_fanout                    0.638537                       # average fanout of values written-back
system.cpu0.commit.commitSquashedInsts        5122476                       # The number of squashed insts skipped by commit
system.cpu0.commit.branchMispredicts            82073                       # The number of times a branch was mispredicted
system.cpu0.commit.committed_per_cycle::samples     29715372                       # Number of insts commited each cycle
system.cpu0.commit.committed_per_cycle::mean     0.087240                       # Number of insts commited each cycle
system.cpu0.commit.committed_per_cycle::stdev     0.552621                       # Number of insts commited each cycle
system.cpu0.commit.committed_per_cycle::underflows            0      0.00%      0.00% # Number of insts commited each cycle
system.cpu0.commit.committed_per_cycle::0     28612766     96.29%     96.29% # Number of insts commited each cycle
system.cpu0.commit.committed_per_cycle::1       504994      1.70%     97.99% # Number of insts commited each cycle
system.cpu0.commit.committed_per_cycle::2       118686      0.40%     98.39% # Number of insts commited each cycle
system.cpu0.commit.committed_per_cycle::3       318569      1.07%     99.46% # Number of insts commited each cycle
system.cpu0.commit.committed_per_cycle::4        66892      0.23%     99.69% # Number of insts commited each cycle
system.cpu0.commit.committed_per_cycle::5        33769      0.11%     99.80% # Number of insts commited each cycle
system.cpu0.commit.committed_per_cycle::6         7248      0.02%     99.82% # Number of insts commited each cycle
system.cpu0.commit.committed_per_cycle::7         5202      0.02%     99.84% # Number of insts commited each cycle
system.cpu0.commit.committed_per_cycle::8        47246      0.16%    100.00% # Number of insts commited each cycle
system.cpu0.commit.committed_per_cycle::overflows            0      0.00%    100.00% # Number of insts commited each cycle
system.cpu0.commit.committed_per_cycle::min_value            0                       # Number of insts commited each cycle
system.cpu0.commit.committed_per_cycle::max_value            8                       # Number of insts commited each cycle
system.cpu0.commit.committed_per_cycle::total     29715372                       # Number of insts commited each cycle
system.cpu0.commit.committedInsts             1297804                       # Number of instructions committed
system.cpu0.commit.committedOps               2592356                       # Number of ops (including micro ops) committed
system.cpu0.commit.swp_count                        0                       # Number of s/w prefetches committed
system.cpu0.commit.refs                        512270                       # Number of memory references committed
system.cpu0.commit.loads                       478887                       # Number of loads committed
system.cpu0.commit.membars                          0                       # Number of memory barriers committed
system.cpu0.commit.branches                    455032                       # Number of branches committed
system.cpu0.commit.vec_insts                        0                       # Number of committed Vector instructions.
system.cpu0.commit.fp_insts                     13360                       # Number of committed floating point instructions.
system.cpu0.commit.int_insts                  2578886                       # Number of committed integer instructions.
system.cpu0.commit.function_calls                5900                       # Number of function calls committed.
system.cpu0.commit.op_class_0::No_OpClass         3982      0.15%      0.15% # Class of committed instruction
system.cpu0.commit.op_class_0::IntAlu         2054888     79.27%     79.42% # Class of committed instruction
system.cpu0.commit.op_class_0::IntMult            236      0.01%     79.43% # Class of committed instruction
system.cpu0.commit.op_class_0::IntDiv            9556      0.37%     79.80% # Class of committed instruction
system.cpu0.commit.op_class_0::FloatAdd         11424      0.44%     80.24% # Class of committed instruction
system.cpu0.commit.op_class_0::FloatCmp             0      0.00%     80.24% # Class of committed instruction
system.cpu0.commit.op_class_0::FloatCvt             0      0.00%     80.24% # Class of committed instruction
system.cpu0.commit.op_class_0::FloatMult            0      0.00%     80.24% # Class of committed instruction
system.cpu0.commit.op_class_0::FloatMultAcc            0      0.00%     80.24% # Class of committed instruction
system.cpu0.commit.op_class_0::FloatDiv             0      0.00%     80.24% # Class of committed instruction
system.cpu0.commit.op_class_0::FloatMisc            0      0.00%     80.24% # Class of committed instruction
system.cpu0.commit.op_class_0::FloatSqrt            0      0.00%     80.24% # Class of committed instruction
system.cpu0.commit.op_class_0::SimdAdd              0      0.00%     80.24% # Class of committed instruction
system.cpu0.commit.op_class_0::SimdAddAcc            0      0.00%     80.24% # Class of committed instruction
system.cpu0.commit.op_class_0::SimdAlu              0      0.00%     80.24% # Class of committed instruction
system.cpu0.commit.op_class_0::SimdCmp              0      0.00%     80.24% # Class of committed instruction
system.cpu0.commit.op_class_0::SimdCvt              0      0.00%     80.24% # Class of committed instruction
system.cpu0.commit.op_class_0::SimdMisc             0      0.00%     80.24% # Class of committed instruction
system.cpu0.commit.op_class_0::SimdMult             0      0.00%     80.24% # Class of committed instruction
system.cpu0.commit.op_class_0::SimdMultAcc            0      0.00%     80.24% # Class of committed instruction
system.cpu0.commit.op_class_0::SimdShift            0      0.00%     80.24% # Class of committed instruction
system.cpu0.commit.op_class_0::SimdShiftAcc            0      0.00%     80.24% # Class of committed instruction
system.cpu0.commit.op_class_0::SimdSqrt             0      0.00%     80.24% # Class of committed instruction
system.cpu0.commit.op_class_0::SimdFloatAdd            0      0.00%     80.24% # Class of committed instruction
system.cpu0.commit.op_class_0::SimdFloatAlu            0      0.00%     80.24% # Class of committed instruction
system.cpu0.commit.op_class_0::SimdFloatCmp            0      0.00%     80.24% # Class of committed instruction
system.cpu0.commit.op_class_0::SimdFloatCvt            0      0.00%     80.24% # Class of committed instruction
system.cpu0.commit.op_class_0::SimdFloatDiv            0      0.00%     80.24% # Class of committed instruction
system.cpu0.commit.op_class_0::SimdFloatMisc            0      0.00%     80.24% # Class of committed instruction
system.cpu0.commit.op_class_0::SimdFloatMult            0      0.00%     80.24% # Class of committed instruction
system.cpu0.commit.op_class_0::SimdFloatMultAcc            0      0.00%     80.24% # Class of committed instruction
system.cpu0.commit.op_class_0::SimdFloatSqrt            0      0.00%     80.24% # Class of committed instruction
system.cpu0.commit.op_class_0::MemRead         476951     18.40%     98.64% # Class of committed instruction
system.cpu0.commit.op_class_0::MemWrite         33383      1.29%     99.93% # Class of committed instruction
system.cpu0.commit.op_class_0::FloatMemRead         1936      0.07%    100.00% # Class of committed instruction
system.cpu0.commit.op_class_0::FloatMemWrite            0      0.00%    100.00% # Class of committed instruction
system.cpu0.commit.op_class_0::IprAccess            0      0.00%    100.00% # Class of committed instruction
system.cpu0.commit.op_class_0::InstPrefetch            0      0.00%    100.00% # Class of committed instruction
system.cpu0.commit.op_class_0::total          2592356                       # Class of committed instruction
system.cpu0.commit.bw_lim_events                47246                       # number cycles where commit BW limit reached
system.cpu0.rob.rob_reads                    37382958                       # The number of ROB reads
system.cpu0.rob.rob_writes                   16162073                       # The number of ROB writes
system.cpu0.timesIdled                            671                       # Number of times that the entire CPU went into an idle state and unscheduled itself
system.cpu0.idleCycles                          88964                       # Total number of cycles that the CPU has spent unscheduled due to idling
system.cpu0.committedInsts                    1297804                       # Number of Instructions Simulated
system.cpu0.committedOps                      2592356                       # Number of Ops (including micro ops) Simulated
system.cpu0.cpi                             23.527966                       # CPI: Cycles Per Instruction
system.cpu0.cpi_total                       23.527966                       # CPI: Total CPI of All Threads
system.cpu0.ipc                              0.042503                       # IPC: Instructions Per Cycle
system.cpu0.ipc_total                        0.042503                       # IPC: Total IPC of All Threads
system.cpu0.int_regfile_reads                 5378927                       # number of integer regfile reads
system.cpu0.int_regfile_writes                4565645                       # number of integer regfile writes
system.cpu0.fp_regfile_reads                    32138                       # number of floating regfile reads
system.cpu0.fp_regfile_writes                   16010                       # number of floating regfile writes
system.cpu0.cc_regfile_reads                  3174251                       # number of cc regfile reads
system.cpu0.cc_regfile_writes                 1421521                       # number of cc regfile writes
system.cpu0.misc_regfile_reads                2767719                       # number of misc regfile reads
system.cpu0.dcache.tags.pwrStateResidencyTicks::UNDEFINED  15267344125                       # Cumulative time (in ticks) in various power states
system.cpu0.dcache.tags.replacements           240569                       # number of replacements
system.cpu0.dcache.tags.tagsinuse                1024                       # Cycle average of tags in use
system.cpu0.dcache.tags.total_refs             386964                       # Total number of references to valid blocks.
system.cpu0.dcache.tags.sampled_refs           240569                       # Sample count of references to valid blocks.
system.cpu0.dcache.tags.avg_refs             1.608536                       # Average number of references to valid blocks.
system.cpu0.dcache.tags.warmup_cycle                0                       # Cycle when the warmup percentage was hit.
system.cpu0.dcache.tags.occ_blocks::cpu0.data         1024                       # Average occupied blocks per requestor
system.cpu0.dcache.tags.occ_percent::cpu0.data            1                       # Average percentage of cache occupancy
system.cpu0.dcache.tags.occ_percent::total            1                       # Average percentage of cache occupancy
system.cpu0.dcache.tags.occ_task_id_blocks::1024         1024                       # Occupied blocks per task id
system.cpu0.dcache.tags.age_task_id_blocks_1024::0          139                       # Occupied blocks per task id
system.cpu0.dcache.tags.age_task_id_blocks_1024::1          780                       # Occupied blocks per task id
system.cpu0.dcache.tags.age_task_id_blocks_1024::2          104                       # Occupied blocks per task id
system.cpu0.dcache.tags.age_task_id_blocks_1024::3            1                       # Occupied blocks per task id
system.cpu0.dcache.tags.occ_task_id_percent::1024            1                       # Percentage of cache occupancy per task id
system.cpu0.dcache.tags.tag_accesses          3553093                       # Number of tag accesses
system.cpu0.dcache.tags.data_accesses         3553093                       # Number of data accesses
system.cpu0.dcache.pwrStateResidencyTicks::UNDEFINED  15267344125                       # Cumulative time (in ticks) in various power states
system.cpu0.dcache.ReadReq_hits::cpu0.data       357527                       # number of ReadReq hits
system.cpu0.dcache.ReadReq_hits::total         357527                       # number of ReadReq hits
system.cpu0.dcache.WriteReq_hits::cpu0.data        32357                       # number of WriteReq hits
system.cpu0.dcache.WriteReq_hits::total         32357                       # number of WriteReq hits
system.cpu0.dcache.demand_hits::cpu0.data       389884                       # number of demand (read+write) hits
system.cpu0.dcache.demand_hits::total          389884                       # number of demand (read+write) hits
system.cpu0.dcache.overall_hits::cpu0.data       389884                       # number of overall hits
system.cpu0.dcache.overall_hits::total         389884                       # number of overall hits
system.cpu0.dcache.ReadReq_misses::cpu0.data       437221                       # number of ReadReq misses
system.cpu0.dcache.ReadReq_misses::total       437221                       # number of ReadReq misses
system.cpu0.dcache.WriteReq_misses::cpu0.data         1026                       # number of WriteReq misses
system.cpu0.dcache.WriteReq_misses::total         1026                       # number of WriteReq misses
system.cpu0.dcache.demand_misses::cpu0.data       438247                       # number of demand (read+write) misses
system.cpu0.dcache.demand_misses::total        438247                       # number of demand (read+write) misses
system.cpu0.dcache.overall_misses::cpu0.data       438247                       # number of overall misses
system.cpu0.dcache.overall_misses::total       438247                       # number of overall misses
system.cpu0.dcache.ReadReq_miss_latency::cpu0.data  35676118000                       # number of ReadReq miss cycles
system.cpu0.dcache.ReadReq_miss_latency::total  35676118000                       # number of ReadReq miss cycles
system.cpu0.dcache.WriteReq_miss_latency::cpu0.data     42137500                       # number of WriteReq miss cycles
system.cpu0.dcache.WriteReq_miss_latency::total     42137500                       # number of WriteReq miss cycles
system.cpu0.dcache.demand_miss_latency::cpu0.data  35718255500                       # number of demand (read+write) miss cycles
system.cpu0.dcache.demand_miss_latency::total  35718255500                       # number of demand (read+write) miss cycles
system.cpu0.dcache.overall_miss_latency::cpu0.data  35718255500                       # number of overall miss cycles
system.cpu0.dcache.overall_miss_latency::total  35718255500                       # number of overall miss cycles
system.cpu0.dcache.ReadReq_accesses::cpu0.data       794748                       # number of ReadReq accesses(hits+misses)
system.cpu0.dcache.ReadReq_accesses::total       794748                       # number of ReadReq accesses(hits+misses)
system.cpu0.dcache.WriteReq_accesses::cpu0.data        33383                       # number of WriteReq accesses(hits+misses)
system.cpu0.dcache.WriteReq_accesses::total        33383                       # number of WriteReq accesses(hits+misses)
system.cpu0.dcache.demand_accesses::cpu0.data       828131                       # number of demand (read+write) accesses
system.cpu0.dcache.demand_accesses::total       828131                       # number of demand (read+write) accesses
system.cpu0.dcache.overall_accesses::cpu0.data       828131                       # number of overall (read+write) accesses
system.cpu0.dcache.overall_accesses::total       828131                       # number of overall (read+write) accesses
system.cpu0.dcache.ReadReq_miss_rate::cpu0.data     0.550138                       # miss rate for ReadReq accesses
system.cpu0.dcache.ReadReq_miss_rate::total     0.550138                       # miss rate for ReadReq accesses
system.cpu0.dcache.WriteReq_miss_rate::cpu0.data     0.030734                       # miss rate for WriteReq accesses
system.cpu0.dcache.WriteReq_miss_rate::total     0.030734                       # miss rate for WriteReq accesses
system.cpu0.dcache.demand_miss_rate::cpu0.data     0.529200                       # miss rate for demand accesses
system.cpu0.dcache.demand_miss_rate::total     0.529200                       # miss rate for demand accesses
system.cpu0.dcache.overall_miss_rate::cpu0.data     0.529200                       # miss rate for overall accesses
system.cpu0.dcache.overall_miss_rate::total     0.529200                       # miss rate for overall accesses
system.cpu0.dcache.ReadReq_avg_miss_latency::cpu0.data 81597.448430                       # average ReadReq miss latency
system.cpu0.dcache.ReadReq_avg_miss_latency::total 81597.448430                       # average ReadReq miss latency
system.cpu0.dcache.WriteReq_avg_miss_latency::cpu0.data 41069.688109                       # average WriteReq miss latency
system.cpu0.dcache.WriteReq_avg_miss_latency::total 41069.688109                       # average WriteReq miss latency
system.cpu0.dcache.demand_avg_miss_latency::cpu0.data 81502.567046                       # average overall miss latency
system.cpu0.dcache.demand_avg_miss_latency::total 81502.567046                       # average overall miss latency
[...]
system.l2.WritebackDirty_hits::total             2282                       # number of WritebackDirty hits
system.l2.ReadExReq_hits::cpu0.data               701                       # number of ReadExReq hits
system.l2.ReadExReq_hits::total                   701                       # number of ReadExReq hits
system.l2.ReadSharedReq_hits::cpu0.data         42858                       # number of ReadSharedReq hits
system.l2.ReadSharedReq_hits::total             42858                       # number of ReadSharedReq hits
system.l2.demand_hits::cpu0.data                43559                       # number of demand (read+write) hits
system.l2.demand_hits::total                    43559                       # number of demand (read+write) hits
system.l2.overall_hits::cpu0.data               43559                       # number of overall hits
system.l2.overall_hits::total                   43559                       # number of overall hits
system.l2.ReadExReq_misses::cpu0.data             318                       # number of ReadExReq misses
system.l2.ReadExReq_misses::total                 318                       # number of ReadExReq misses
system.l2.ReadSharedReq_misses::cpu0.data       196692                       # number of ReadSharedReq misses
system.l2.ReadSharedReq_misses::total          196692                       # number of ReadSharedReq misses
system.l2.demand_misses::cpu0.data             197010                       # number of demand (read+write) misses
system.l2.demand_misses::total                 197010                       # number of demand (read+write) misses
system.l2.overall_misses::cpu0.data            197010                       # number of overall misses
system.l2.overall_misses::total                197010                       # number of overall misses
system.l2.ReadExReq_miss_latency::cpu0.data     31481000                       # number of ReadExReq miss cycles
system.l2.ReadExReq_miss_latency::total      31481000                       # number of ReadExReq miss cycles
system.l2.ReadSharedReq_miss_latency::cpu0.data  18585928000                       # number of ReadSharedReq miss cycles
system.l2.ReadSharedReq_miss_latency::total  18585928000                       # number of ReadSharedReq miss cycles
system.l2.demand_miss_latency::cpu0.data  18617409000                       # number of demand (read+write) miss cycles
system.l2.demand_miss_latency::total      18617409000                       # number of demand (read+write) miss cycles
system.l2.overall_miss_latency::cpu0.data  18617409000                       # number of overall miss cycles
system.l2.overall_miss_latency::total     18617409000                       # number of overall miss cycles
system.l2.WritebackDirty_accesses::writebacks         2282                       # number of WritebackDirty accesses(hits+misses)
system.l2.WritebackDirty_accesses::total         2282                       # number of WritebackDirty accesses(hits+misses)
system.l2.ReadExReq_accesses::cpu0.data          1019                       # number of ReadExReq accesses(hits+misses)
system.l2.ReadExReq_accesses::total              1019                       # number of ReadExReq accesses(hits+misses)
system.l2.ReadSharedReq_accesses::cpu0.data       239550                       # number of ReadSharedReq accesses(hits+misses)
system.l2.ReadSharedReq_accesses::total        239550                       # number of ReadSharedReq accesses(hits+misses)
system.l2.demand_accesses::cpu0.data           240569                       # number of demand (read+write) accesses
system.l2.demand_accesses::total               240569                       # number of demand (read+write) accesses
system.l2.overall_accesses::cpu0.data          240569                       # number of overall (read+write) accesses
system.l2.overall_accesses::total              240569                       # number of overall (read+write) accesses
system.l2.ReadExReq_miss_rate::cpu0.data     0.312071                       # miss rate for ReadExReq accesses
system.l2.ReadExReq_miss_rate::total         0.312071                       # miss rate for ReadExReq accesses
system.l2.ReadSharedReq_miss_rate::cpu0.data     0.821090                       # miss rate for ReadSharedReq accesses
system.l2.ReadSharedReq_miss_rate::total     0.821090                       # miss rate for ReadSharedReq accesses
system.l2.demand_miss_rate::cpu0.data        0.818933                       # miss rate for demand accesses
system.l2.demand_miss_rate::total            0.818933                       # miss rate for demand accesses
system.l2.overall_miss_rate::cpu0.data       0.818933                       # miss rate for overall accesses
system.l2.overall_miss_rate::total           0.818933                       # miss rate for overall accesses
system.l2.ReadExReq_avg_miss_latency::cpu0.data 98996.855346                       # average ReadExReq miss latency
system.l2.ReadExReq_avg_miss_latency::total 98996.855346                       # average ReadExReq miss latency
system.l2.ReadSharedReq_avg_miss_latency::cpu0.data 94492.546723                       # average ReadSharedReq miss latency
system.l2.ReadSharedReq_avg_miss_latency::total 94492.546723                       # average ReadSharedReq miss latency
system.l2.demand_avg_miss_latency::cpu0.data 94499.817268                       # average overall miss latency
system.l2.demand_avg_miss_latency::total 94499.817268                       # average overall miss latency
system.l2.overall_avg_miss_latency::cpu0.data 94499.817268                       # average overall miss latency
system.l2.overall_avg_miss_latency::total 94499.817268                       # average overall miss latency
system.l2.blocked_cycles::no_mshrs                  0                       # number of cycles access was blocked
system.l2.blocked_cycles::no_targets                0                       # number of cycles access was blocked
system.l2.blocked::no_mshrs                         0                       # number of cycles access was blocked
system.l2.blocked::no_targets                       0                       # number of cycles access was blocked
system.l2.avg_blocked_cycles::no_mshrs            nan                       # average number of cycles each access was blocked
system.l2.avg_blocked_cycles::no_targets          nan                       # average number of cycles each access was blocked
system.l2.writebacks::writebacks                  508                       # number of writebacks
system.l2.writebacks::total                       508                       # number of writebacks
system.l2.CleanEvict_mshr_misses::writebacks            4                       # number of CleanEvict MSHR misses
system.l2.CleanEvict_mshr_misses::total             4                       # number of CleanEvict MSHR misses
system.l2.ReadExReq_mshr_misses::cpu0.data          318                       # number of ReadExReq MSHR misses
system.l2.ReadExReq_mshr_misses::total            318                       # number of ReadExReq MSHR misses
system.l2.ReadSharedReq_mshr_misses::cpu0.data       196692                       # number of ReadSharedReq MSHR misses
system.l2.ReadSharedReq_mshr_misses::total       196692                       # number of ReadSharedReq MSHR misses
system.l2.demand_mshr_misses::cpu0.data        197010                       # number of demand (read+write) MSHR misses
system.l2.demand_mshr_misses::total            197010                       # number of demand (read+write) MSHR misses
system.l2.overall_mshr_misses::cpu0.data       197010                       # number of overall MSHR misses
system.l2.overall_mshr_misses::total           197010                       # number of overall MSHR misses
system.l2.ReadExReq_mshr_miss_latency::cpu0.data     28301000                       # number of ReadExReq MSHR miss cycles
system.l2.ReadExReq_mshr_miss_latency::total     28301000                       # number of ReadExReq MSHR miss cycles
system.l2.ReadSharedReq_mshr_miss_latency::cpu0.data  16619018000                       # number of ReadSharedReq MSHR miss cycles
system.l2.ReadSharedReq_mshr_miss_latency::total  16619018000                       # number of ReadSharedReq MSHR miss cycles
system.l2.demand_mshr_miss_latency::cpu0.data  16647319000                       # number of demand (read+write) MSHR miss cycles
system.l2.demand_mshr_miss_latency::total  16647319000                       # number of demand (read+write) MSHR miss cycles
system.l2.overall_mshr_miss_latency::cpu0.data  16647319000                       # number of overall MSHR miss cycles
system.l2.overall_mshr_miss_latency::total  16647319000                       # number of overall MSHR miss cycles
system.l2.CleanEvict_mshr_miss_rate::writebacks          inf                       # mshr miss rate for CleanEvict accesses
system.l2.CleanEvict_mshr_miss_rate::total          inf                       # mshr miss rate for CleanEvict accesses
system.l2.ReadExReq_mshr_miss_rate::cpu0.data     0.312071                       # mshr miss rate for ReadExReq accesses
system.l2.ReadExReq_mshr_miss_rate::total     0.312071                       # mshr miss rate for ReadExReq accesses
system.l2.ReadSharedReq_mshr_miss_rate::cpu0.data     0.821090                       # mshr miss rate for ReadSharedReq accesses
system.l2.ReadSharedReq_mshr_miss_rate::total     0.821090                       # mshr miss rate for ReadSharedReq accesses
system.l2.demand_mshr_miss_rate::cpu0.data     0.818933                       # mshr miss rate for demand accesses
system.l2.demand_mshr_miss_rate::total       0.818933                       # mshr miss rate for demand accesses
system.l2.overall_mshr_miss_rate::cpu0.data     0.818933                       # mshr miss rate for overall accesses
system.l2.overall_mshr_miss_rate::total      0.818933                       # mshr miss rate for overall accesses
system.l2.ReadExReq_avg_mshr_miss_latency::cpu0.data 88996.855346                       # average ReadExReq mshr miss latency
system.l2.ReadExReq_avg_mshr_miss_latency::total 88996.855346                       # average ReadExReq mshr miss latency
system.l2.ReadSharedReq_avg_mshr_miss_latency::cpu0.data 84492.597564                       # average ReadSharedReq mshr miss latency
system.l2.ReadSharedReq_avg_mshr_miss_latency::total 84492.597564                       # average ReadSharedReq mshr miss latency
system.l2.demand_avg_mshr_miss_latency::cpu0.data 84499.868027                       # average overall mshr miss latency
system.l2.demand_avg_mshr_miss_latency::total 84499.868027                       # average overall mshr miss latency
system.l2.overall_avg_mshr_miss_latency::cpu0.data 84499.868027                       # average overall mshr miss latency
system.l2.overall_avg_mshr_miss_latency::total 84499.868027                       # average overall mshr miss latency
system.membus.snoop_filter.tot_requests        394011                       # Total number of requests made to the snoop filter.
system.membus.snoop_filter.hit_single_requests       197008                       # Number of requests hitting in the snoop filter with a single holder of the requested data.
system.membus.snoop_filter.hit_multi_requests            0                       # Number of requests hitting in the snoop filter with multiple (>1) holders of the requested data.
system.membus.snoop_filter.tot_snoops               0                       # Total number of snoops made to the snoop filter.
system.membus.snoop_filter.hit_single_snoops            0                       # Number of snoops hitting in the snoop filter with a single holder of the requested data.
system.membus.snoop_filter.hit_multi_snoops            0                       # Number of snoops hitting in the snoop filter with multiple (>1) holders of the requested data.
system.membus.pwrStateResidencyTicks::UNDEFINED  15267344125                       # Cumulative time (in ticks) in various power states
system.membus.trans_dist::ReadResp             196691                       # Transaction distribution
system.membus.trans_dist::WritebackDirty          508                       # Transaction distribution
system.membus.trans_dist::CleanEvict           196494                       # Transaction distribution
system.membus.trans_dist::ReadExReq               318                       # Transaction distribution
system.membus.trans_dist::ReadExResp              318                       # Transaction distribution
system.membus.trans_dist::ReadSharedReq        196691                       # Transaction distribution
system.membus.pkt_count_system.l2.mem_side::system.mem_ctrls.port       591020                       # Packet count per connected master and slave (bytes)
system.membus.pkt_count_system.l2.mem_side::total       591020                       # Packet count per connected master and slave (bytes)
system.membus.pkt_count::total                 591020                       # Packet count per connected master and slave (bytes)
system.membus.pkt_size_system.l2.mem_side::system.mem_ctrls.port     12641088                       # Cumulative packet size per connected master and slave (bytes)
system.membus.pkt_size_system.l2.mem_side::total     12641088                       # Cumulative packet size per connected master and slave (bytes)
system.membus.pkt_size::total                12641088                       # Cumulative packet size per connected master and slave (bytes)
system.membus.snoops                                0                       # Total snoops (count)
system.membus.snoopTraffic                          0                       # Total snoop traffic (bytes)
system.membus.snoop_fanout::samples            197009                       # Request fanout histogram
system.membus.snoop_fanout::mean                    0                       # Request fanout histogram
system.membus.snoop_fanout::stdev                   0                       # Request fanout histogram
system.membus.snoop_fanout::underflows              0      0.00%      0.00% # Request fanout histogram
system.membus.snoop_fanout::0                  197009    100.00%    100.00% # Request fanout histogram
system.membus.snoop_fanout::1                       0      0.00%    100.00% # Request fanout histogram
system.membus.snoop_fanout::overflows               0      0.00%    100.00% # Request fanout histogram
system.membus.snoop_fanout::min_value               0                       # Request fanout histogram
system.membus.snoop_fanout::max_value               0                       # Request fanout histogram
system.membus.snoop_fanout::total              197009                       # Request fanout histogram
system.membus.reqLayer4.occupancy           463332500                       # Layer occupancy (ticks)
system.membus.reqLayer4.utilization               3.0                       # Layer utilization (%)
system.membus.respLayer1.occupancy         1064595000                       # Layer occupancy (ticks)
system.membus.respLayer1.utilization              7.0                       # Layer utilization (%)
system.tol2bus.snoop_filter.tot_requests       481138                       # Total number of requests made to the snoop filter.
system.tol2bus.snoop_filter.hit_single_requests       240568                       # Number of requests hitting in the snoop filter with a single holder of the requested data.
system.tol2bus.snoop_filter.hit_multi_requests          573                       # Number of requests hitting in the snoop filter with multiple (>1) holders of the requested data.
system.tol2bus.snoop_filter.tot_snoops             20                       # Total number of snoops made to the snoop filter.
system.tol2bus.snoop_filter.hit_single_snoops           20                       # Number of snoops hitting in the snoop filter with a single holder of the requested data.
system.tol2bus.snoop_filter.hit_multi_snoops            0                       # Number of snoops hitting in the snoop filter with multiple (>1) holders of the requested data.
system.tol2bus.pwrStateResidencyTicks::UNDEFINED  15267344125                       # Cumulative time (in ticks) in various power states
system.tol2bus.trans_dist::ReadResp            239550                       # Transaction distribution
system.tol2bus.trans_dist::WritebackDirty         2790                       # Transaction distribution
system.tol2bus.trans_dist::CleanEvict          434797                       # Transaction distribution
system.tol2bus.trans_dist::ReadExReq             1019                       # Transaction distribution
system.tol2bus.trans_dist::ReadExResp            1019                       # Transaction distribution
system.tol2bus.trans_dist::ReadSharedReq       239550                       # Transaction distribution
system.tol2bus.pkt_count_system.cpu0.dcache.mem_side::system.l2.cpu_side       721707                       # Packet count per connected master and slave (bytes)
system.tol2bus.pkt_count::total                721707                       # Packet count per connected master and slave (bytes)
system.tol2bus.pkt_size_system.cpu0.dcache.mem_side::system.l2.cpu_side     15542464                       # Cumulative packet size per connected master and slave (bytes)
system.tol2bus.pkt_size::total               15542464                       # Cumulative packet size per connected master and slave (bytes)
system.tol2bus.snoops                          197018                       # Total snoops (count)
system.tol2bus.snoopTraffic                     32512                       # Total snoop traffic (bytes)
system.tol2bus.snoop_fanout::samples           437587                       # Request fanout histogram
system.tol2bus.snoop_fanout::mean            0.001353                       # Request fanout histogram
system.tol2bus.snoop_fanout::stdev           0.036757                       # Request fanout histogram
system.tol2bus.snoop_fanout::underflows             0      0.00%      0.00% # Request fanout histogram
system.tol2bus.snoop_fanout::0                 436995     99.86%     99.86% # Request fanout histogram
system.tol2bus.snoop_fanout::1                    592      0.14%    100.00% # Request fanout histogram
system.tol2bus.snoop_fanout::2                      0      0.00%    100.00% # Request fanout histogram
system.tol2bus.snoop_fanout::3                      0      0.00%    100.00% # Request fanout histogram
system.tol2bus.snoop_fanout::4                      0      0.00%    100.00% # Request fanout histogram
system.tol2bus.snoop_fanout::5                      0      0.00%    100.00% # Request fanout histogram
system.tol2bus.snoop_fanout::6                      0      0.00%    100.00% # Request fanout histogram
system.tol2bus.snoop_fanout::7                      0      0.00%    100.00% # Request fanout histogram
system.tol2bus.snoop_fanout::8                      0      0.00%    100.00% # Request fanout histogram
system.tol2bus.snoop_fanout::overflows              0      0.00%    100.00% # Request fanout histogram
system.tol2bus.snoop_fanout::min_value              0                       # Request fanout histogram
system.tol2bus.snoop_fanout::max_value              1                       # Request fanout histogram
system.tol2bus.snoop_fanout::total             437587                       # Request fanout histogram
system.tol2bus.reqLayer0.occupancy          242851000                       # Layer occupancy (ticks)
system.tol2bus.reqLayer0.utilization              1.6                       # Layer utilization (%)
system.tol2bus.respLayer1.occupancy         360853500                       # Layer occupancy (ticks)
system.tol2bus.respLayer1.utilization             2.4                       # Layer utilization (%)

---------- End Simulation Statistics   ----------
