
---------- Begin Simulation Statistics ----------
sim_seconds                                  0.015267                       # Number of seconds simulated
sim_ticks                                 15267344125                       # Number of ticks simulated
final_tick                               1450397691875                       # Number of ticks from beginning of simulation (restored from checkpoints and never reset)
sim_freq                                 1000000000000                       # Frequency of simulated ticks
host_inst_rate                               10978001                       # Simulator instruction rate (inst/s)
host_op_rate                                 20076018                       # Simulator op (including micro ops) rate (op/s)
host_tick_rate                               52641317                       # Simulator tick rate (ticks/s)
host_mem_usage                                1248188                       # Number of bytes of host memory used
host_seconds                                   290.03                       # Real time elapsed on the host
sim_insts                                  3183904199                       # Number of instructions simulated
sim_ops                                    5822564420                       # Number of ops (including micro ops) simulated
system.voltage_domain.voltage                       1                       # Voltage in Volts
system.clk_domain.clock                          1000                       # Clock period in ticks
system.mem_ctrls.pwrStateResidencyTicks::UNDEFINED  15267344125                       # Cumulative time (in ticks) in various power states
system.mem_ctrls.bytes_read::cpu0.data         912128                       # Number of bytes read from this memory
system.mem_ctrls.bytes_read::total             912128                       # Number of bytes read from this memory
system.mem_ctrls.bytes_written::writebacks       859136                       # Number of bytes written to this memory
system.mem_ctrls.bytes_written::total          859136                       # Number of bytes written to this memory
system.mem_ctrls.num_reads::cpu0.data           14252                       # Number of read requests responded to by this memory
system.mem_ctrls.num_reads::total               14252                       # Number of read requests responded to by this memory
system.mem_ctrls.num_writes::writebacks         13424                       # Number of write requests responded to by this memory
system.mem_ctrls.num_writes::total              13424                       # Number of write requests responded to by this memory
system.mem_ctrls.bw_read::cpu0.data          59743724                       # Total read bandwidth from this memory (bytes/s)
system.mem_ctrls.bw_read::total              59743724                       # Total read bandwidth from this memory (bytes/s)
system.mem_ctrls.bw_write::writebacks        56272787                       # Write bandwidth from this memory (bytes/s)
system.mem_ctrls.bw_write::total             56272787                       # Write bandwidth from this memory (bytes/s)
system.mem_ctrls.bw_total::writebacks        56272787                       # Total bandwidth to/from this memory (bytes/s)
system.mem_ctrls.bw_total::cpu0.data         59743724                       # Total bandwidth to/from this memory (bytes/s)
system.mem_ctrls.bw_total::total            116016511                       # Total bandwidth to/from this memory (bytes/s)
system.mem_ctrls.readReqs                       14252                       # Number of read requests accepted
system.mem_ctrls.writeReqs                      13424                       # Number of write requests accepted
system.mem_ctrls.readBursts                     14252                       # Number of DRAM read bursts, including those serviced by the write queue
system.mem_ctrls.writeBursts                    13424                       # Number of DRAM write bursts, including those merged in the write queue
system.mem_ctrls.bytesReadDRAM                 912128                       # Total number of bytes read from DRAM
system.mem_ctrls.bytesReadWrQ                       0                       # Total number of bytes read from write queue
system.mem_ctrls.bytesWritten                  859904                       # Total number of bytes written to DRAM
system.mem_ctrls.bytesReadSys                  912128                       # Total read bytes from the system interface side
system.mem_ctrls.bytesWrittenSys               859136                       # Total written bytes from the system interface side
system.mem_ctrls.servicedByWrQ                      0                       # Number of DRAM read bursts serviced by the write queue
system.mem_ctrls.mergedWrBursts                     0                       # Number of DRAM write bursts merged with an existing one
system.mem_ctrls.neitherReadNorWriteReqs            0                       # Number of requests that are neither read nor write
system.mem_ctrls.perBankRdBursts::0               871                       # Per bank write bursts
system.mem_ctrls.perBankRdBursts::1              1024                       # Per bank write bursts
system.mem_ctrls.perBankRdBursts::2              1024                       # Per bank write bursts
system.mem_ctrls.perBankRdBursts::3              1144                       # Per bank write bursts
system.mem_ctrls.perBankRdBursts::4              1175                       # Per bank write bursts
system.mem_ctrls.perBankRdBursts::5              1146                       # Per bank write bursts
system.mem_ctrls.perBankRdBursts::6               907                       # Per bank write bursts
system.mem_ctrls.perBankRdBursts::7               771                       # Per bank write bursts
system.mem_ctrls.perBankRdBursts::8               768                       # Per bank write bursts
system.mem_ctrls.perBankRdBursts::9               791                       # Per bank write bursts
system.mem_ctrls.perBankRdBursts::10              768                       # Per bank write bursts
system.mem_ctrls.perBankRdBursts::11              768                       # Per bank write bursts
system.mem_ctrls.perBankRdBursts::12              768                       # Per bank write bursts
system.mem_ctrls.perBankRdBursts::13              768                       # Per bank write bursts
system.mem_ctrls.perBankRdBursts::14              791                       # Per bank write bursts
system.mem_ctrls.perBankRdBursts::15              768                       # Per bank write bursts
system.mem_ctrls.perBankWrBursts::0               888                       # Per bank write bursts
system.mem_ctrls.perBankWrBursts::1              1024                       # Per bank write bursts
system.mem_ctrls.perBankWrBursts::2              1024                       # Per bank write bursts
system.mem_ctrls.perBankWrBursts::3              1114                       # Per bank write bursts
system.mem_ctrls.perBankWrBursts::4              1143                       # Per bank write bursts
system.mem_ctrls.perBankWrBursts::5              1146                       # Per bank write bursts
system.mem_ctrls.perBankWrBursts::6               894                       # Per bank write bursts
system.mem_ctrls.perBankWrBursts::7               768                       # Per bank write bursts
system.mem_ctrls.perBankWrBursts::8               768                       # Per bank write bursts
system.mem_ctrls.perBankWrBursts::9               723                       # Per bank write bursts
system.mem_ctrls.perBankWrBursts::10              640                       # Per bank write bursts
system.mem_ctrls.perBankWrBursts::11              640                       # Per bank write bursts
system.mem_ctrls.perBankWrBursts::12              640                       # Per bank write bursts
system.mem_ctrls.perBankWrBursts::13              640                       # Per bank write bursts
system.mem_ctrls.perBankWrBursts::14              644                       # Per bank write bursts
system.mem_ctrls.perBankWrBursts::15              740                       # Per bank write bursts
system.mem_ctrls.numRdRetry                         0                       # Number of times read queue was full causing retry
system.mem_ctrls.numWrRetry                         0                       # Number of times write queue was full causing retry
system.mem_ctrls.totGap                   15267332000                       # Total gap between requests
system.mem_ctrls.readPktSize::0                     0                       # Read request sizes (log2)
system.mem_ctrls.readPktSize::1                     0                       # Read request sizes (log2)
system.mem_ctrls.readPktSize::2                     0                       # Read request sizes (log2)
system.mem_ctrls.readPktSize::3                     0                       # Read request sizes (log2)
system.mem_ctrls.readPktSize::4                     0                       # Read request sizes (log2)
system.mem_ctrls.readPktSize::5                     0                       # Read request sizes (log2)
system.mem_ctrls.readPktSize::6                 14252                       # Read request sizes (log2)
system.mem_ctrls.writePktSize::0                    0                       # Write request sizes (log2)
system.mem_ctrls.writePktSize::1                    0                       # Write request sizes (log2)
system.mem_ctrls.writePktSize::2                    0                       # Write request sizes (log2)
system.mem_ctrls.writePktSize::3                    0                       # Write request sizes (log2)
system.mem_ctrls.writePktSize::4                    0                       # Write request sizes (log2)
system.mem_ctrls.writePktSize::5                    0                       # Write request sizes (log2)
system.mem_ctrls.writePktSize::6                13424                       # Write request sizes (log2)
system.mem_ctrls.rdQLenPdf::0                   14252                       # What read queue length does an incoming req see
system.mem_ctrls.rdQLenPdf::1                       0                       # What read queue length does an incoming req see
system.mem_ctrls.rdQLenPdf::2                       0                       # What read queue length does an incoming req see
system.mem_ctrls.rdQLenPdf::3                       0                       # What read queue length does an incoming req see
system.mem_ctrls.rdQLenPdf::4                       0                       # What read queue length does an incoming req see
system.mem_ctrls.rdQLenPdf::5                       0                       # What read queue length does an incoming req see
system.mem_ctrls.rdQLenPdf::6                       0                       # What read queue length does an incoming req see
system.mem_ctrls.rdQLenPdf::7                       0                       # What read queue length does an incoming req see
system.mem_ctrls.rdQLenPdf::8                       0                       # What read queue length does an incoming req see
system.mem_ctrls.rdQLenPdf::9                       0                       # What read queue length does an incoming req see
system.mem_ctrls.rdQLenPdf::10                      0                       # What read queue length does an incoming req see
system.mem_ctrls.rdQLenPdf::11                      0                       # What read queue length does an incoming req see
system.mem_ctrls.rdQLenPdf::12                      0                       # What read queue length does an incoming req see
system.mem_ctrls.rdQLenPdf::13                      0                       # What read queue length does an incoming req see
system.mem_ctrls.rdQLenPdf::14                      0                       # What read queue length does an incoming req see
system.mem_ctrls.rdQLenPdf::15                      0                       # What read queue length does an incoming req see
system.mem_ctrls.rdQLenPdf::16                      0                       # What read queue length does an incoming req see
system.mem_ctrls.rdQLenPdf::17                      0                       # What read queue length does an incoming req see
system.mem_ctrls.rdQLenPdf::18                      0                       # What read queue length does an incoming req see
system.mem_ctrls.rdQLenPdf::19                      0                       # What read queue length does an incoming req see
system.mem_ctrls.rdQLenPdf::20                      0                       # What read queue length does an incoming req see
system.mem_ctrls.rdQLenPdf::21                      0                       # What read queue length does an incoming req see
system.mem_ctrls.rdQLenPdf::22                      0                       # What read queue length does an incoming req see
system.mem_ctrls.rdQLenPdf::23                      0                       # What read queue length does an incoming req see
system.mem_ctrls.rdQLenPdf::24                      0                       # What read queue length does an incoming req see
system.mem_ctrls.rdQLenPdf::25                      0                       # What read queue length does an incoming req see
system.mem_ctrls.rdQLenPdf::26                      0                       # What read queue length does an incoming req see
system.mem_ctrls.rdQLenPdf::27                      0                       # What read queue length does an incoming req see
system.mem_ctrls.rdQLenPdf::28                      0                       # What read queue length does an incoming req see
system.mem_ctrls.rdQLenPdf::29                      0                       # What read queue length does an incoming req see
system.mem_ctrls.rdQLenPdf::30                      0                       # What read queue length does an incoming req see
system.mem_ctrls.rdQLenPdf::31                      0                       # What read queue length does an incoming req see
system.mem_ctrls.wrQLenPdf::0                       0                       # What write queue length does an incoming req see
system.mem_ctrls.wrQLenPdf::1                       0                       # What write queue length does an incoming req see
system.mem_ctrls.wrQLenPdf::2                       0                       # What write queue length does an incoming req see
system.mem_ctrls.wrQLenPdf::3                       0                       # What write queue length does an incoming req see
system.mem_ctrls.wrQLenPdf::4                       0                       # What write queue length does an incoming req see
system.mem_ctrls.wrQLenPdf::5                       0                       # What write queue length does an incoming req see
system.mem_ctrls.wrQLenPdf::6                       0                       # What write queue length does an incoming req see
system.mem_ctrls.wrQLenPdf::7                       0                       # What write queue length does an incoming req see
system.mem_ctrls.wrQLenPdf::8                       0                       # What write queue length does an incoming req see
system.mem_ctrls.wrQLenPdf::9                       0                       # What write queue length does an incoming req see
system.mem_ctrls.wrQLenPdf::10                      0                       # What write queue length does an incoming req see
system.mem_ctrls.wrQLenPdf::11                      0                       # What write queue length does an incoming req see
system.mem_ctrls.wrQLenPdf::12                      0                       # What write queue length does an incoming req see
system.mem_ctrls.wrQLenPdf::13                      0                       # What write queue length does an incoming req see
system.mem_ctrls.wrQLenPdf::14                      0                       # What write queue length does an incoming req see
system.mem_ctrls.wrQLenPdf::15                    734                       # What write queue length does an incoming req see
system.mem_ctrls.wrQLenPdf::16                    733                       # What write queue length does an incoming req see
system.mem_ctrls.wrQLenPdf::17                    747                       # What write queue length does an incoming req see
system.mem_ctrls.wrQLenPdf::18                    747                       # What write queue length does an incoming req see
system.mem_ctrls.wrQLenPdf::19                    747                       # What write queue length does an incoming req see
system.mem_ctrls.wrQLenPdf::20                    747                       # What write queue length does an incoming req see
system.mem_ctrls.wrQLenPdf::21                    747                       # What write queue length does an incoming req see
system.mem_ctrls.wrQLenPdf::22                    747                       # What write queue length does an incoming req see
system.mem_ctrls.wrQLenPdf::23                    747                       # What write queue length does an incoming req see
system.mem_ctrls.wrQLenPdf::24                    747                       # What write queue length does an incoming req see
system.mem_ctrls.wrQLenPdf::25                    747                       # What write queue length does an incoming req see
system.mem_ctrls.wrQLenPdf::26                    747                       # What write queue length does an incoming req see
system.mem_ctrls.wrQLenPdf::27                    747                       # What write queue length does an incoming req see
system.mem_ctrls.wrQLenPdf::28                    748                       # What write queue length does an incoming req see
system.mem_ctrls.wrQLenPdf::29                    748                       # What write queue length does an incoming req see
system.mem_ctrls.wrQLenPdf::30                    748                       # What write queue length does an incoming req see
system.mem_ctrls.wrQLenPdf::31                    748                       # What write queue length does an incoming req see
system.mem_ctrls.wrQLenPdf::32                    748                       # What write queue length does an incoming req see
system.mem_ctrls.wrQLenPdf::33                      0                       # What write queue length does an incoming req see
system.mem_ctrls.wrQLenPdf::34                      0                       # What write queue length does an incoming req see
system.mem_ctrls.wrQLenPdf::35                      0                       # What write queue length does an incoming req see
system.mem_ctrls.wrQLenPdf::36                      0                       # What write queue length does an incoming req see
system.mem_ctrls.wrQLenPdf::37                      0                       # What write queue length does an incoming req see
system.mem_ctrls.wrQLenPdf::38                      0                       # What write queue length does an incoming req see
system.mem_ctrls.wrQLenPdf::39                      0                       # What write queue length does an incoming req see
system.mem_ctrls.wrQLenPdf::40                      0                       # What write queue length does an incoming req see
system.mem_ctrls.wrQLenPdf::41                      0                       # What write queue length does an incoming req see
system.mem_ctrls.wrQLenPdf::42                      0                       # What write queue length does an incoming req see
system.mem_ctrls.wrQLenPdf::43                      0                       # What write queue length does an incoming req see
system.mem_ctrls.wrQLenPdf::44                      0                       # What write queue length does an incoming req see
system.mem_ctrls.wrQLenPdf::45                      0                       # What write queue length does an incoming req see
system.mem_ctrls.wrQLenPdf::46                      0                       # What write queue length does an incoming req see
system.mem_ctrls.wrQLenPdf::47                      0                       # What write queue length does an incoming req see
system.mem_ctrls.wrQLenPdf::48                      0                       # What write queue length does an incoming req see
system.mem_ctrls.wrQLenPdf::49                      0                       # What write queue length does an incoming req see
system.mem_ctrls.wrQLenPdf::50                      0                       # What write queue length does an incoming req see
system.mem_ctrls.wrQLenPdf::51                      0                       # What write queue length does an incoming req see
system.mem_ctrls.wrQLenPdf::52                      0                       # What write queue length does an incoming req see
system.mem_ctrls.wrQLenPdf::53                      0                       # What write queue length does an incoming req see
system.mem_ctrls.wrQLenPdf::54                      0                       # What write queue length does an incoming req see
system.mem_ctrls.wrQLenPdf::55                      0                       # What write queue length does an incoming req see
system.mem_ctrls.wrQLenPdf::56                      0                       # What write queue length does an incoming req see
system.mem_ctrls.wrQLenPdf::57                      0                       # What write queue length does an incoming req see
system.mem_ctrls.wrQLenPdf::58                      0                       # What write queue length does an incoming req see
system.mem_ctrls.wrQLenPdf::59                      0                       # What write queue length does an incoming req see
system.mem_ctrls.wrQLenPdf::60                      0                       # What write queue length does an incoming req see
system.mem_ctrls.wrQLenPdf::61                      0                       # What write queue length does an incoming req see
system.mem_ctrls.wrQLenPdf::62                      0                       # What write queue length does an incoming req see
system.mem_ctrls.wrQLenPdf::63                      0                       # What write queue length does an incoming req see
system.mem_ctrls.bytesPerActivate::samples         6012                       # Bytes accessed per row activation
system.mem_ctrls.bytesPerActivate::mean    294.770459                       # Bytes accessed per row activation
system.mem_ctrls.bytesPerActivate::gmean   183.124107                       # Bytes accessed per row activation
system.mem_ctrls.bytesPerActivate::stdev   290.451387                       # Bytes accessed per row activation
system.mem_ctrls.bytesPerActivate::0-127         2395     39.84%     39.84% # Bytes accessed per row activation
system.mem_ctrls.bytesPerActivate::128-255          843     14.02%     53.86% # Bytes accessed per row activation
system.mem_ctrls.bytesPerActivate::256-383          569      9.46%     63.32% # Bytes accessed per row activation
system.mem_ctrls.bytesPerActivate::384-511         1443     24.00%     87.33% # Bytes accessed per row activation
system.mem_ctrls.bytesPerActivate::512-639           47      0.78%     88.11% # Bytes accessed per row activation
system.mem_ctrls.bytesPerActivate::640-767           58      0.96%     89.07% # Bytes accessed per row activation
system.mem_ctrls.bytesPerActivate::768-895           46      0.77%     89.84% # Bytes accessed per row activation
system.mem_ctrls.bytesPerActivate::896-1023          100      1.66%     91.50% # Bytes accessed per row activation
system.mem_ctrls.bytesPerActivate::1024-1151          511      8.50%    100.00% # Bytes accessed per row activation
system.mem_ctrls.bytesPerActivate::total         6012                       # Bytes accessed per row activation
system.mem_ctrls.rdPerTurnAround::samples          748                       # Reads before turning the bus around for writes
system.mem_ctrls.rdPerTurnAround::mean      19.069519                       # Reads before turning the bus around for writes
system.mem_ctrls.rdPerTurnAround::gmean     18.504413                       # Reads before turning the bus around for writes
system.mem_ctrls.rdPerTurnAround::stdev      8.565394                       # Reads before turning the bus around for writes
system.mem_ctrls.rdPerTurnAround::16-23           735     98.26%     98.26% # Reads before turning the bus around for writes
system.mem_ctrls.rdPerTurnAround::32-39             2      0.27%     98.53% # Reads before turning the bus around for writes
system.mem_ctrls.rdPerTurnAround::40-47             2      0.27%     98.80% # Reads before turning the bus around for writes
system.mem_ctrls.rdPerTurnAround::48-55             1      0.13%     98.93% # Reads before turning the bus around for writes
system.mem_ctrls.rdPerTurnAround::56-63             2      0.27%     99.20% # Reads before turning the bus around for writes
system.mem_ctrls.rdPerTurnAround::72-79             1      0.13%     99.33% # Reads before turning the bus around for writes
system.mem_ctrls.rdPerTurnAround::80-87             1      0.13%     99.47% # Reads before turning the bus around for writes
system.mem_ctrls.rdPerTurnAround::96-103            1      0.13%     99.60% # Reads before turning the bus around for writes
system.mem_ctrls.rdPerTurnAround::112-119            1      0.13%     99.73% # Reads before turning the bus around for writes
system.mem_ctrls.rdPerTurnAround::120-127            1      0.13%     99.87% # Reads before turning the bus around for writes
system.mem_ctrls.rdPerTurnAround::136-143            1      0.13%    100.00% # Reads before turning the bus around for writes
system.mem_ctrls.rdPerTurnAround::total           748                       # Reads before turning the bus around for writes
system.mem_ctrls.wrPerTurnAround::samples          748                       # Writes before turning the bus around for reads
system.mem_ctrls.wrPerTurnAround::mean      17.962567                       # Writes before turning the bus around for reads
system.mem_ctrls.wrPerTurnAround::gmean     17.960363                       # Writes before turning the bus around for reads
system.mem_ctrls.wrPerTurnAround::stdev      0.271226                       # Writes before turning the bus around for reads
system.mem_ctrls.wrPerTurnAround::16               14      1.87%      1.87% # Writes before turning the bus around for reads
system.mem_ctrls.wrPerTurnAround::18              734     98.13%    100.00% # Writes before turning the bus around for reads
system.mem_ctrls.wrPerTurnAround::total           748                       # Writes before turning the bus around for reads
system.mem_ctrls.totQLat                    328422250                       # Total ticks spent queuing
system.mem_ctrls.totMemAccLat               595647250                       # Total ticks spent from burst creation until serviced by the DRAM
system.mem_ctrls.totBusLat                   71260000                       # Total ticks spent in databus transfers
system.mem_ctrls.avgQLat                     23043.94                       # Average queueing delay per DRAM burst
system.mem_ctrls.avgBusLat                    5000.00                       # Average bus latency per DRAM burst
system.mem_ctrls.avgMemAccLat                41793.94                       # Average memory access latency per DRAM burst
system.mem_ctrls.avgRdBW                        59.74                       # Average DRAM read bandwidth in MiByte/s
system.mem_ctrls.avgWrBW                        56.32                       # Average achieved write bandwidth in MiByte/s
system.mem_ctrls.avgRdBWSys                     59.74                       # Average system read bandwidth in MiByte/s
system.mem_ctrls.avgWrBWSys                     56.27                       # Average system write bandwidth in MiByte/s
system.mem_ctrls.peakBW                      12800.00                       # Theoretical peak bandwidth in MiByte/s
system.mem_ctrls.busUtil                         0.91                       # Data bus utilization in percentage
system.mem_ctrls.busUtilRead                     0.47                       # Data bus utilization in percentage for reads
system.mem_ctrls.busUtilWrite                    0.44                       # Data bus utilization in percentage for writes
system.mem_ctrls.avgRdQLen                       1.00                       # Average read queue length when enqueuing
system.mem_ctrls.avgWrQLen                      24.53                       # Average write queue length when enqueuing
system.mem_ctrls.readRowHits                    10329                       # Number of row buffer hits during reads
system.mem_ctrls.writeRowHits                   11346                       # Number of row buffer hits during writes
system.mem_ctrls.readRowHitRate                 72.47                       # Row buffer hit rate for reads
system.mem_ctrls.writeRowHitRate                84.52                       # Row buffer hit rate for writes
system.mem_ctrls.avgGap                     551645.18                       # Average gap between requests
system.mem_ctrls.pageHitRate                    78.32                       # Row buffer hit rate, read and write combined
system.mem_ctrls_0.actEnergy                 29481060                       # Energy for activate commands per rank (pJ)
system.mem_ctrls_0.preEnergy                 15665760                       # Energy for precharge commands per rank (pJ)
system.mem_ctrls_0.readEnergy                57562680                       # Energy for read commands per rank (pJ)
system.mem_ctrls_0.writeEnergy               41765220                       # Energy for write commands per rank (pJ)
system.mem_ctrls_0.refreshEnergy         1266773040.000000                       # Energy for refresh commands per rank (pJ)
system.mem_ctrls_0.actBackEnergy            768711690                       # Energy for active background per rank (pJ)
system.mem_ctrls_0.preBackEnergy             66089760                       # Energy for precharge background per rank (pJ)
system.mem_ctrls_0.actPowerDownEnergy      3980743770                       # Energy for active power-down per rank (pJ)
system.mem_ctrls_0.prePowerDownEnergy      1260537600                       # Energy for precharge power-down per rank (pJ)
system.mem_ctrls_0.selfRefreshEnergy        500979000                       # Energy for self refresh per rank (pJ)
system.mem_ctrls_0.totalEnergy             7988655330                       # Total energy per rank (pJ)
system.mem_ctrls_0.averagePower            523.251147                       # Core power per rank (mW)
system.mem_ctrls_0.totalIdleTime          13408051250                       # Total Idle time Per DRAM Rank
system.mem_ctrls_0.memoryStateTime::IDLE    118332500                       # Time in different power states
system.mem_ctrls_0.memoryStateTime::REF     537678000                       # Time in different power states
system.mem_ctrls_0.memoryStateTime::SREF   1396351500                       # Time in different power states
system.mem_ctrls_0.memoryStateTime::PRE_PDN   3282688750                       # Time in different power states
system.mem_ctrls_0.memoryStateTime::ACT    1202685750                       # Time in different power states
system.mem_ctrls_0.memoryStateTime::ACT_PDN   8729607625                       # Time in different power states
system.mem_ctrls_1.actEnergy                 13451760                       # Energy for activate commands per rank (pJ)
system.mem_ctrls_1.preEnergy                  7149780                       # Energy for precharge commands per rank (pJ)
system.mem_ctrls_1.readEnergy                44196600                       # Energy for read commands per rank (pJ)
system.mem_ctrls_1.writeEnergy               28370700                       # Energy for write commands per rank (pJ)
system.mem_ctrls_1.refreshEnergy         945316320.000000                       # Energy for refresh commands per rank (pJ)
system.mem_ctrls_1.actBackEnergy            425312910                       # Energy for active background per rank (pJ)
system.mem_ctrls_1.preBackEnergy             48928800                       # Energy for precharge background per rank (pJ)
system.mem_ctrls_1.actPowerDownEnergy      2857183140                       # Energy for active power-down per rank (pJ)
system.mem_ctrls_1.prePowerDownEnergy       986572800                       # Energy for precharge power-down per rank (pJ)
system.mem_ctrls_1.selfRefreshEnergy       1447285140                       # Energy for self refresh per rank (pJ)
system.mem_ctrls_1.totalEnergy             6804016350                       # Total energy per rank (pJ)
system.mem_ctrls_1.averagePower            445.658151                       # Core power per rank (mW)
system.mem_ctrls_1.totalIdleTime          14205726500                       # Total Idle time Per DRAM Rank
system.mem_ctrls_1.memoryStateTime::IDLE     83424000                       # Time in different power states
system.mem_ctrls_1.memoryStateTime::REF     401608000                       # Time in different power states
system.mem_ctrls_1.memoryStateTime::SREF   5371725500                       # Time in different power states
system.mem_ctrls_1.memoryStateTime::PRE_PDN   2569172125                       # Time in different power states
system.mem_ctrls_1.memoryStateTime::ACT     575391750                       # Time in different power states
system.mem_ctrls_1.memoryStateTime::ACT_PDN   6266022750                       # Time in different power states
system.pwrStateResidencyTicks::UNDEFINED  15267344125                       # Cumulative time (in ticks) in various power states
system.cpu0.branchPred.lookups                5304916                       # Number of BP lookups
system.cpu0.branchPred.condPredicted          5304916                       # Number of conditional branches predicted
system.cpu0.branchPred.condIncorrect           119909                       # Number of conditional branches incorrect
system.cpu0.branchPred.BTBLookups             3703462                       # Number of BTB lookups
system.cpu0.branchPred.BTBHits                      0                       # Number of BTB hits
system.cpu0.branchPred.BTBCorrect                   0                       # Number of correct BTB predictions (this stat may not work properly.
system.cpu0.branchPred.BTBHitPct             0.000000                       # BTB Hit Percentage
system.cpu0.branchPred.usedRAS                 765463                       # Number of times the RAS was used to get a target.
system.cpu0.branchPred.RASInCorrect              5487                       # Number of incorrect RAS predictions.
system.cpu0.branchPred.indirectLookups        3703462                       # Number of indirect predictor lookups.
system.cpu0.branchPred.indirectHits           2542754                       # Number of indirect target hits.
system.cpu0.branchPred.indirectMisses         1160708                       # Number of indirect misses.
system.cpu0.branchPredindirectMispredicted            7                       # Number of mispredicted indirect branches.
system.cpu_voltage_domain.voltage                   1                       # Voltage in Volts
system.cpu_clk_domain.clock                       500                       # Clock period in ticks
system.cpu0.dtb.walker.pwrStateResidencyTicks::UNDEFINED  15267344125                       # Cumulative time (in ticks) in various power states
system.cpu0.dtb.rdAccesses                    8952129                       # TLB accesses on read requests
system.cpu0.dtb.wrAccesses                    2099526                       # TLB accesses on write requests
system.cpu0.dtb.rdMisses                        12541                       # TLB misses on read requests
system.cpu0.dtb.wrMisses                            0                       # TLB misses on write requests
system.cpu0.apic_clk_domain.clock                8000                       # Clock period in ticks
system.cpu0.interrupts.pwrStateResidencyTicks::UNDEFINED  15267344125                       # Cumulative time (in ticks) in various power states
system.cpu0.itb.walker.pwrStateResidencyTicks::UNDEFINED  15267344125                       # Cumulative time (in ticks) in various power states
system.cpu0.itb.rdAccesses                          0                       # TLB accesses on read requests
system.cpu0.itb.wrAccesses                    6305917                       # TLB accesses on write requests
system.cpu0.itb.rdMisses                            0                       # TLB misses on read requests
system.cpu0.itb.wrMisses                            0                       # TLB misses on write requests
system.cpu0.workload.numSyscalls                    0                       # Number of system calls
system.cpu0.pwrStateResidencyTicks::ON    15267344125                       # Cumulative time (in ticks) in various power states
system.cpu0.numCycles                        30534688                       # number of cpu cycles simulated
system.cpu0.numWorkItemsStarted                     0                       # number of work items this cpu started
system.cpu0.numWorkItemsCompleted                   0                       # number of work items this cpu completed
system.cpu0.fetch.icacheStallCycles           6371959                       # Number of cycles fetch is stalled on an Icache miss
system.cpu0.fetch.Insts                      46785892                       # Number of instructions fetch has processed
system.cpu0.fetch.Branches                    5304916                       # Number of branches that fetch encountered
system.cpu0.fetch.predictedBranches           3308217                       # Number of branches that fetch has predicted taken
system.cpu0.fetch.Cycles                     24042708                       # Number of cycles fetch has run and was not squashing or blocked
system.cpu0.fetch.SquashCycles                 240042                       # Number of cycles fetch has spent squashing
system.cpu0.fetch.CacheLines                  6305917                       # Number of cache lines fetched
system.cpu0.fetch.IcacheSquashes                53950                       # Number of outstanding Icache misses that were squashed
system.cpu0.fetch.rateDist::samples          30534688                       # Number of instructions fetched each cycle (Total)
system.cpu0.fetch.rateDist::mean             2.679830                       # Number of instructions fetched each cycle (Total)
system.cpu0.fetch.rateDist::stdev            3.370055                       # Number of instructions fetched each cycle (Total)
system.cpu0.fetch.rateDist::underflows              0      0.00%      0.00% # Number of instructions fetched each cycle (Total)
system.cpu0.fetch.rateDist::0                16645787     54.51%     54.51% # Number of instructions fetched each cycle (Total)
system.cpu0.fetch.rateDist::1                  704943      2.31%     56.82% # Number of instructions fetched each cycle (Total)
system.cpu0.fetch.rateDist::2                 1679479      5.50%     62.32% # Number of instructions fetched each cycle (Total)
system.cpu0.fetch.rateDist::3                  673382      2.21%     64.53% # Number of instructions fetched each cycle (Total)
system.cpu0.fetch.rateDist::4                 1017094      3.33%     67.86% # Number of instructions fetched each cycle (Total)
system.cpu0.fetch.rateDist::5                 1597174      5.23%     73.09% # Number of instructions fetched each cycle (Total)
system.cpu0.fetch.rateDist::6                  594586      1.95%     75.04% # Number of instructions fetched each cycle (Total)
system.cpu0.fetch.rateDist::7                  855970      2.80%     77.84% # Number of instructions fetched each cycle (Total)
system.cpu0.fetch.rateDist::8                 6766273     22.16%    100.00% # Number of instructions fetched each cycle (Total)
system.cpu0.fetch.rateDist::overflows               0      0.00%    100.00% # Number of instructions fetched each cycle (Total)
system.cpu0.fetch.rateDist::min_value               0                       # Number of instructions fetched each cycle (Total)
system.cpu0.fetch.rateDist::max_value               8                       # Number of instructions fetched each cycle (Total)
system.cpu0.fetch.rateDist::total            30534688                       # Number of instructions fetched each cycle (Total)
system.cpu0.fetch.branchRate                 0.173734                       # Number of branch fetches per cycle
system.cpu0.fetch.rate                       1.532221                       # Number of inst fetches per cycle
system.cpu0.decode.IdleCycles                 4209112                       # Number of cycles decode is idle
system.cpu0.decode.BlockedCycles             15578081                       # Number of cycles decode is blocked
system.cpu0.decode.RunCycles                  6290921                       # Number of cycles decode is running
system.cpu0.decode.UnblockCycles              4336553                       # Number of cycles decode is unblocking
system.cpu0.decode.SquashCycles                120021                       # Number of cycles decode is squashing
system.cpu0.decode.DecodedInsts              78112541                       # Number of instructions handled by decode
system.cpu0.rename.SquashCycles                120021                       # Number of cycles rename is squashing
system.cpu0.rename.IdleCycles                 5903904                       # Number of cycles rename is idle
system.cpu0.rename.BlockCycles                5617320                       # Number of cycles rename is blocking
system.cpu0.rename.serializeStallCycles             0                       # count of cycles rename stalled for serializing inst
system.cpu0.rename.RunCycles                  8873796                       # Number of cycles rename is running
system.cpu0.rename.UnblockCycles             10019647                       # Number of cycles rename is unblocking
system.cpu0.rename.RenamedInsts              77503098                       # Number of instructions processed by rename
system.cpu0.rename.ROBFullEvents               203244                       # Number of times rename has blocked due to ROB full
system.cpu0.rename.IQFullEvents               8961376                       # Number of times rename has blocked due to IQ full
system.cpu0.rename.RenamedOperands           83329678                       # Number of destination operands rename has renamed
system.cpu0.rename.RenameLookups            184151615                       # Number of register rename lookups that rename has made
system.cpu0.rename.int_rename_lookups        60737211                       # Number of integer rename lookups
system.cpu0.rename.fp_rename_lookups         75523012                       # Number of floating rename lookups
system.cpu0.rename.CommittedMaps             70524570                       # Number of HB maps that are committed
system.cpu0.rename.UndoneMaps                12805144                       # Number of HB maps that are undone due to squashing
system.cpu0.rename.serializingInsts                 0                       # count of serializing insts renamed
system.cpu0.rename.tempSerializingInsts             0                       # count of temporary serializing insts renamed
system.cpu0.rename.skidInsts                 23061612                       # count of insts added to the skid buffer
system.cpu0.memDep0.insertedLoads             9571270                       # Number of loads inserted to the mem dependence unit.
system.cpu0.memDep0.insertedStores            2107118                       # Number of stores inserted to the mem dependence unit.
system.cpu0.memDep0.conflictingLoads           425749                       # Number of conflicting loads.
system.cpu0.memDep0.conflictingStores          100235                       # Number of conflicting stores.
system.cpu0.iq.iqInstsAdded                  76734419                       # Number of instructions added to the IQ (excludes non-spec)
system.cpu0.iq.iqInstsIssued                 70926667                       # Number of instructions issued
system.cpu0.iq.iqSquashedInstsExamined       10819477                       # Number of squashed instructions iterated over during squash; mainly for profiling
system.cpu0.iq.iqSquashedOperandsExamined     15733354                       # Number of squashed operands that are examined and possibly removed from graph
system.cpu0.iq.issued_per_cycle::samples     30534688                       # Number of insts issued each cycle
system.cpu0.iq.issued_per_cycle::mean        2.322823                       # Number of insts issued each cycle
system.cpu0.iq.issued_per_cycle::stdev       1.961666                       # Number of insts issued each cycle
system.cpu0.iq.issued_per_cycle::underflows            0      0.00%      0.00% # Number of insts issued each cycle
system.cpu0.iq.issued_per_cycle::0            6342836     20.77%     20.77% # Number of insts issued each cycle
system.cpu0.iq.issued_per_cycle::1            6074150     19.89%     40.67% # Number of insts issued each cycle
system.cpu0.iq.issued_per_cycle::2            5651867     18.51%     59.17% # Number of insts issued each cycle
system.cpu0.iq.issued_per_cycle::3            4856789     15.91%     75.08% # Number of insts issued each cycle
system.cpu0.iq.issued_per_cycle::4            3024459      9.90%     84.99% # Number of insts issued each cycle
system.cpu0.iq.issued_per_cycle::5            1970906      6.45%     91.44% # Number of insts issued each cycle
system.cpu0.iq.issued_per_cycle::6            1585163      5.19%     96.63% # Number of insts issued each cycle
system.cpu0.iq.issued_per_cycle::7             713072      2.34%     98.97% # Number of insts issued each cycle
system.cpu0.iq.issued_per_cycle::8             315446      1.03%    100.00% # Number of insts issued each cycle
system.cpu0.iq.issued_per_cycle::overflows            0      0.00%    100.00% # Number of insts issued each cycle
system.cpu0.iq.issued_per_cycle::min_value            0                       # Number of insts issued each cycle
system.cpu0.iq.issued_per_cycle::max_value            8                       # Number of insts issued each cycle
system.cpu0.iq.issued_per_cycle::total       30534688                       # Number of insts issued each cycle
system.cpu0.iq.fu_full::No_OpClass                  0      0.00%      0.00% # attempts to use FU when none available
system.cpu0.iq.fu_full::IntAlu                     20      0.02%      0.02% # attempts to use FU when none available
system.cpu0.iq.fu_full::IntMult                     0      0.00%      0.02% # attempts to use FU when none available
system.cpu0.iq.fu_full::IntDiv                      0      0.00%      0.02% # attempts to use FU when none available
system.cpu0.iq.fu_full::FloatAdd               116191     99.83%     99.84% # attempts to use FU when none available
system.cpu0.iq.fu_full::FloatCmp                    0      0.00%     99.84% # attempts to use FU when none available
system.cpu0.iq.fu_full::FloatCvt                    0      0.00%     99.84% # attempts to use FU when none available
system.cpu0.iq.fu_full::FloatMult                   0      0.00%     99.84% # attempts to use FU when none available
system.cpu0.iq.fu_full::FloatMultAcc                0      0.00%     99.84% # attempts to use FU when none available
system.cpu0.iq.fu_full::FloatDiv                    0      0.00%     99.84% # attempts to use FU when none available
system.cpu0.iq.fu_full::FloatMisc                   0      0.00%     99.84% # attempts to use FU when none available
system.cpu0.iq.fu_full::FloatSqrt                   0      0.00%     99.84% # attempts to use FU when none available
system.cpu0.iq.fu_full::SimdAdd                     0      0.00%     99.84% # attempts to use FU when none available
system.cpu0.iq.fu_full::SimdAddAcc                  0      0.00%     99.84% # attempts to use FU when none available
system.cpu0.iq.fu_full::SimdAlu                     0      0.00%     99.84% # attempts to use FU when none available
system.cpu0.iq.fu_full::SimdCmp                     0      0.00%     99.84% # attempts to use FU when none available
system.cpu0.iq.fu_full::SimdCvt                     0      0.00%     99.84% # attempts to use FU when none available
system.cpu0.iq.fu_full::SimdMisc                    0      0.00%     99.84% # attempts to use FU when none available
system.cpu0.iq.fu_full::SimdMult                    0      0.00%     99.84% # attempts to use FU when none available
system.cpu0.iq.fu_full::SimdMultAcc                 0      0.00%     99.84% # attempts to use FU when none available
system.cpu0.iq.fu_full::SimdShift                   0      0.00%     99.84% # attempts to use FU when none available
system.cpu0.iq.fu_full::SimdShiftAcc                0      0.00%     99.84% # attempts to use FU when none available
system.cpu0.iq.fu_full::SimdSqrt                    0      0.00%     99.84% # attempts to use FU when none available
system.cpu0.iq.fu_full::SimdFloatAdd                0      0.00%     99.84% # attempts to use FU when none available
system.cpu0.iq.fu_full::SimdFloatAlu                0      0.00%     99.84% # attempts to use FU when none available
system.cpu0.iq.fu_full::SimdFloatCmp                0      0.00%     99.84% # attempts to use FU when none available
system.cpu0.iq.fu_full::SimdFloatCvt                0      0.00%     99.84% # attempts to use FU when none available
system.cpu0.iq.fu_full::SimdFloatDiv                0      0.00%     99.84% # attempts to use FU when none available
system.cpu0.iq.fu_full::SimdFloatMisc               0      0.00%     99.84% # attempts to use FU when none available
system.cpu0.iq.fu_full::SimdFloatMult               0      0.00%     99.84% # attempts to use FU when none available
system.cpu0.iq.fu_full::SimdFloatMultAcc            0      0.00%     99.84% # attempts to use FU when none available
system.cpu0.iq.fu_full::SimdFloatSqrt               0      0.00%     99.84% # attempts to use FU when none available
system.cpu0.iq.fu_full::MemRead                   182      0.16%    100.00% # attempts to use FU when none available
system.cpu0.iq.fu_full::MemWrite                    0      0.00%    100.00% # attempts to use FU when none available
system.cpu0.iq.fu_full::FloatMemRead                0      0.00%    100.00% # attempts to use FU when none available
system.cpu0.iq.fu_full::FloatMemWrite               0      0.00%    100.00% # attempts to use FU when none available
system.cpu0.iq.fu_full::IprAccess                   0      0.00%    100.00% # attempts to use FU when none available
system.cpu0.iq.fu_full::InstPrefetch                0      0.00%    100.00% # attempts to use FU when none available
system.cpu0.iq.FU_type_0::No_OpClass             6212      0.01%      0.01% # Type of FU issued
system.cpu0.iq.FU_type_0::IntAlu             36883538     52.00%     52.01% # Type of FU issued
system.cpu0.iq.FU_type_0::IntMult                   0      0.00%     52.01% # Type of FU issued
system.cpu0.iq.FU_type_0::IntDiv                    0      0.00%     52.01% # Type of FU issued
system.cpu0.iq.FU_type_0::FloatAdd           22989563     32.41%     84.42% # Type of FU issued
system.cpu0.iq.FU_type_0::FloatCmp                  0      0.00%     84.42% # Type of FU issued
system.cpu0.iq.FU_type_0::FloatCvt                  0      0.00%     84.42% # Type of FU issued
system.cpu0.iq.FU_type_0::FloatMult                 0      0.00%     84.42% # Type of FU issued
system.cpu0.iq.FU_type_0::FloatMultAcc              0      0.00%     84.42% # Type of FU issued
system.cpu0.iq.FU_type_0::FloatDiv                  0      0.00%     84.42% # Type of FU issued
system.cpu0.iq.FU_type_0::FloatMisc                 0      0.00%     84.42% # Type of FU issued
system.cpu0.iq.FU_type_0::FloatSqrt                 0      0.00%     84.42% # Type of FU issued
system.cpu0.iq.FU_type_0::SimdAdd                   0      0.00%     84.42% # Type of FU issued
system.cpu0.iq.FU_type_0::SimdAddAcc                0      0.00%     84.42% # Type of FU issued
system.cpu0.iq.FU_type_0::SimdAlu                   0      0.00%     84.42% # Type of FU issued
system.cpu0.iq.FU_type_0::SimdCmp                   0      0.00%     84.42% # Type of FU issued
system.cpu0.iq.FU_type_0::SimdCvt                   0      0.00%     84.42% # Type of FU issued
system.cpu0.iq.FU_type_0::SimdMisc                  0      0.00%     84.42% # Type of FU issued
system.cpu0.iq.FU_type_0::SimdMult                  0      0.00%     84.42% # Type of FU issued
system.cpu0.iq.FU_type_0::SimdMultAcc               0      0.00%     84.42% # Type of FU issued
system.cpu0.iq.FU_type_0::SimdShift                 0      0.00%     84.42% # Type of FU issued
system.cpu0.iq.FU_type_0::SimdShiftAcc              0      0.00%     84.42% # Type of FU issued
system.cpu0.iq.FU_type_0::SimdSqrt                  0      0.00%     84.42% # Type of FU issued
system.cpu0.iq.FU_type_0::SimdFloatAdd              0      0.00%     84.42% # Type of FU issued
system.cpu0.iq.FU_type_0::SimdFloatAlu              0      0.00%     84.42% # Type of FU issued
system.cpu0.iq.FU_type_0::SimdFloatCmp              0      0.00%     84.42% # Type of FU issued
system.cpu0.iq.FU_type_0::SimdFloatCvt              0      0.00%     84.42% # Type of FU issued
system.cpu0.iq.FU_type_0::SimdFloatDiv              0      0.00%     84.42% # Type of FU issued
system.cpu0.iq.FU_type_0::SimdFloatMisc             0      0.00%     84.42% # Type of FU issued
system.cpu0.iq.FU_type_0::SimdFloatMult             0      0.00%     84.42% # Type of FU issued
system.cpu0.iq.FU_type_0::SimdFloatMultAcc            0      0.00%     84.42% # Type of FU issued
system.cpu0.iq.FU_type_0::SimdFloatSqrt             0      0.00%     84.42% # Type of FU issued
system.cpu0.iq.FU_type_0::MemRead             1983988      2.80%     87.22% # Type of FU issued
system.cpu0.iq.FU_type_0::MemWrite            1472663      2.08%     89.30% # Type of FU issued
system.cpu0.iq.FU_type_0::FloatMemRead        6963325      9.82%     99.12% # Type of FU issued
system.cpu0.iq.FU_type_0::FloatMemWrite        627378      0.88%    100.00% # Type of FU issued
system.cpu0.iq.FU_type_0::IprAccess                 0      0.00%    100.00% # Type of FU issued
system.cpu0.iq.FU_type_0::InstPrefetch              0      0.00%    100.00% # Type of FU issued
system.cpu0.iq.FU_type_0::total              70926667                       # Type of FU issued
system.cpu0.iq.rate                          2.322823                       # Inst issue rate
system.cpu0.iq.fu_busy_cnt                     116393                       # FU busy when requested
system.cpu0.iq.fu_busy_rate                  0.001641                       # FU busy rate (busy events/executed inst)
system.cpu0.iq.int_inst_queue_reads          97663179                       # Number of integer instruction queue reads
system.cpu0.iq.int_inst_queue_writes         37711752                       # Number of integer instruction queue writes
system.cpu0.iq.int_inst_queue_wakeup_accesses     33472558                       # Number of integer instruction queue wakeup accesses
system.cpu0.iq.fp_inst_queue_reads           74841240                       # Number of floating instruction queue reads
system.cpu0.iq.fp_inst_queue_writes          49842256                       # Number of floating instruction queue writes
system.cpu0.iq.fp_inst_queue_wakeup_accesses     37181443                       # Number of floating instruction queue wakeup accesses
system.cpu0.iq.vec_inst_queue_reads                 0                       # Number of vector instruction queue reads
system.cpu0.iq.vec_inst_queue_writes                0                       # Number of vector instruction queue writes
system.cpu0.iq.vec_inst_queue_wakeup_accesses            0                       # Number of vector instruction queue wakeup accesses
system.cpu0.iq.int_alu_accesses              33558124                       # Number of integer alu accesses
system.cpu0.iq.fp_alu_accesses               37478724                       # Number of floating point alu accesses
system.cpu0.iq.vec_alu_accesses                     0                       # Number of vector alu accesses
system.cpu0.iew.lsq.thread0.forwLoads          419478                       # Number of loads that had data forwarded from stores
system.cpu0.iew.lsq.thread0.invAddrLoads            0                       # Number of loads ignored due to an invalid address
system.cpu0.iew.lsq.thread0.squashedLoads      1455368                       # Number of loads squashed
system.cpu0.iew.lsq.thread0.ignoredResponses            0                       # Number of memory responses ignored because the instruction is squashed
system.cpu0.iew.lsq.thread0.memOrderViolation          112                       # Number of memory ordering violations
system.cpu0.iew.lsq.thread0.squashedStores         8825                       # Number of stores squashed
system.cpu0.iew.lsq.thread0.invAddrSwpfs            0                       # Number of software prefetches ignored due to an invalid address
system.cpu0.iew.lsq.thread0.blockedLoads            0                       # Number of blocked loads due to partial load-store forwarding
system.cpu0.iew.lsq.thread0.rescheduledLoads            0                       # Number of loads that were rescheduled
system.cpu0.iew.lsq.thread0.cacheBlocked            0                       # Number of times an access to memory failed due to the cache being blocked
system.cpu0.iew.iewIdleCycles                       0                       # Number of cycles IEW is idle
system.cpu0.iew.iewSquashCycles                120021                       # Number of cycles IEW is squashing
system.cpu0.iew.iewBlockCycles                3295885                       # Number of cycles IEW is blocking
system.cpu0.iew.iewUnblockCycles               124411                       # Number of cycles IEW is unblocking
system.cpu0.iew.iewDispatchedInsts           76734419                       # Number of instructions dispatched to IQ
system.cpu0.iew.iewDispSquashedInsts                6                       # Number of squashed instructions skipped by dispatch
system.cpu0.iew.iewDispLoadInsts              9571270                       # Number of dispatched load instructions
system.cpu0.iew.iewDispStoreInsts             2107118                       # Number of dispatched store instructions
system.cpu0.iew.iewDispNonSpecInsts                 0                       # Number of dispatched non-speculative instructions
system.cpu0.iew.iewIQFullEvents                111119                       # Number of times the IQ has become full, causing a stall
system.cpu0.iew.iewLSQFullEvents                    0                       # Number of times the LSQ has become full, causing a stall
system.cpu0.iew.memOrderViolationEvents           112                       # Number of memory order violations
system.cpu0.iew.predictedTakenIncorrect         72878                       # Number of branches that were predicted taken incorrectly
system.cpu0.iew.predictedNotTakenIncorrect        49845                       # Number of branches that were predicted not taken incorrectly
system.cpu0.iew.branchMispredicts              122723                       # Number of branch mispredicts detected at execute
system.cpu0.iew.iewExecutedInsts             70681840                       # Number of executed instructions
system.cpu0.iew.iewExecLoadInsts              8924239                       # Number of load instructions executed
system.cpu0.iew.iewExecSquashedInsts           244831                       # Number of squashed instructions skipped in execute
system.cpu0.iew.exec_swp                            0                       # number of swp insts executed
system.cpu0.iew.exec_nop                            0                       # number of nop insts executed
system.cpu0.iew.exec_refs                    11023765                       # number of memory reference insts executed
system.cpu0.iew.exec_branches                 4721103                       # Number of branches executed
system.cpu0.iew.exec_stores                   2099526                       # Number of stores executed
system.cpu0.iew.exec_rate                    2.314805                       # Inst execution rate
system.cpu0.iew.wb_sent                      70669336                       # cumulative count of insts sent to commit
system.cpu0.iew.wb_count                     70654001                       # cumulative count of insts written-back
system.cpu0.iew.wb_producers                 52651016                       # num instructions producing a value
system.cpu0.iew.wb_consumers                 92611604                       # num instructions consuming a value
system.cpu0.iew.wb_rate                      2.313893                       # insts written-back per cycle
system.cpu0.iew.wb_fanout                    0.568514                       # average fanout of values written-back
system.cpu0.commit.commitSquashedInsts       10819477                       # The number of squashed insts skipped by commit
system.cpu0.commit.branchMispredicts           119909                       # The number of times a branch was mispredicted
system.cpu0.commit.committed_per_cycle::samples     29144542                       # Number of insts commited each cycle
system.cpu0.commit.committed_per_cycle::mean     2.261658                       # Number of insts commited each cycle
system.cpu0.commit.committed_per_cycle::stdev     2.864242                       # Number of insts commited each cycle
system.cpu0.commit.committed_per_cycle::underflows            0      0.00%      0.00% # Number of insts commited each cycle
system.cpu0.commit.committed_per_cycle::0     10898819     37.40%     37.40% # Number of insts commited each cycle
system.cpu0.commit.committed_per_cycle::1      7512610     25.78%     63.17% # Number of insts commited each cycle
system.cpu0.commit.committed_per_cycle::2      1061776      3.64%     66.82% # Number of insts commited each cycle
system.cpu0.commit.committed_per_cycle::3      2899285      9.95%     76.76% # Number of insts commited each cycle
system.cpu0.commit.committed_per_cycle::4      1141070      3.92%     80.68% # Number of insts commited each cycle
system.cpu0.commit.committed_per_cycle::5       217070      0.74%     81.42% # Number of insts commited each cycle
system.cpu0.commit.committed_per_cycle::6       423632      1.45%     82.88% # Number of insts commited each cycle
system.cpu0.commit.committed_per_cycle::7       532685      1.83%     84.71% # Number of insts commited each cycle
system.cpu0.commit.committed_per_cycle::8      4457595     15.29%    100.00% # Number of insts commited each cycle
system.cpu0.commit.committed_per_cycle::overflows            0      0.00%    100.00% # Number of insts commited each cycle
system.cpu0.commit.committed_per_cycle::min_value            0                       # Number of insts commited each cycle
system.cpu0.commit.committed_per_cycle::max_value            8                       # Number of insts commited each cycle
system.cpu0.commit.committed_per_cycle::total     29144542                       # Number of insts commited each cycle
system.cpu0.commit.committedInsts            37126329                       # Number of instructions committed
system.cpu0.commit.committedOps              65914994                       # Number of ops (including micro ops) committed
system.cpu0.commit.swp_count                        0                       # Number of s/w prefetches committed
system.cpu0.commit.refs                      10214206                       # Number of memory references committed
system.cpu0.commit.loads                      8115910                       # Number of loads committed
system.cpu0.commit.membars                          0                       # Number of memory barriers committed
system.cpu0.commit.branches                   4611935                       # Number of branches committed
system.cpu0.commit.vec_insts                        0                       # Number of committed Vector instructions.
system.cpu0.commit.fp_insts                  34082271                       # Number of committed floating point instructions.
system.cpu0.commit.int_insts                 40920888                       # Number of committed integer instructions.
system.cpu0.commit.function_calls              627363                       # Number of function calls committed.
system.cpu0.commit.op_class_0::No_OpClass         5991      0.01%      0.01% # Class of committed instruction
system.cpu0.commit.op_class_0::IntAlu        34262098     51.98%     51.99% # Class of committed instruction
system.cpu0.commit.op_class_0::IntMult              0      0.00%     51.99% # Class of committed instruction
system.cpu0.commit.op_class_0::IntDiv               0      0.00%     51.99% # Class of committed instruction
system.cpu0.commit.op_class_0::FloatAdd      21432699     32.52%     84.50% # Class of committed instruction
system.cpu0.commit.op_class_0::FloatCmp             0      0.00%     84.50% # Class of committed instruction
system.cpu0.commit.op_class_0::FloatCvt             0      0.00%     84.50% # Class of committed instruction
system.cpu0.commit.op_class_0::FloatMult            0      0.00%     84.50% # Class of committed instruction
system.cpu0.commit.op_class_0::FloatMultAcc            0      0.00%     84.50% # Class of committed instruction
system.cpu0.commit.op_class_0::FloatDiv             0      0.00%     84.50% # Class of committed instruction
system.cpu0.commit.op_class_0::FloatMisc            0      0.00%     84.50% # Class of committed instruction
system.cpu0.commit.op_class_0::FloatSqrt            0      0.00%     84.50% # Class of committed instruction
system.cpu0.commit.op_class_0::SimdAdd              0      0.00%     84.50% # Class of committed instruction
system.cpu0.commit.op_class_0::SimdAddAcc            0      0.00%     84.50% # Class of committed instruction
system.cpu0.commit.op_class_0::SimdAlu              0      0.00%     84.50% # Class of committed instruction
system.cpu0.commit.op_class_0::SimdCmp              0      0.00%     84.50% # Class of committed instruction
system.cpu0.commit.op_class_0::SimdCvt              0      0.00%     84.50% # Class of committed instruction
system.cpu0.commit.op_class_0::SimdMisc             0      0.00%     84.50% # Class of committed instruction
system.cpu0.commit.op_class_0::SimdMult             0      0.00%     84.50% # Class of committed instruction
system.cpu0.commit.op_class_0::SimdMultAcc            0      0.00%     84.50% # Class of committed instruction
system.cpu0.commit.op_class_0::SimdShift            0      0.00%     84.50% # Class of committed instruction
system.cpu0.commit.op_class_0::SimdShiftAcc            0      0.00%     84.50% # Class of committed instruction
system.cpu0.commit.op_class_0::SimdSqrt             0      0.00%     84.50% # Class of committed instruction
system.cpu0.commit.op_class_0::SimdFloatAdd            0      0.00%     84.50% # Class of committed instruction
system.cpu0.commit.op_class_0::SimdFloatAlu            0      0.00%     84.50% # Class of committed instruction
system.cpu0.commit.op_class_0::SimdFloatCmp            0      0.00%     84.50% # Class of committed instruction
system.cpu0.commit.op_class_0::SimdFloatCvt            0      0.00%     84.50% # Class of committed instruction
system.cpu0.commit.op_class_0::SimdFloatDiv            0      0.00%     84.50% # Class of committed instruction
system.cpu0.commit.op_class_0::SimdFloatMisc            0      0.00%     84.50% # Class of committed instruction
system.cpu0.commit.op_class_0::SimdFloatMult            0      0.00%     84.50% # Class of committed instruction
system.cpu0.commit.op_class_0::SimdFloatMultAcc            0      0.00%     84.50% # Class of committed instruction
system.cpu0.commit.op_class_0::SimdFloatSqrt            0      0.00%     84.50% # Class of committed instruction
system.cpu0.commit.op_class_0::MemRead        1949446      2.96%     87.46% # Class of committed instruction
system.cpu0.commit.op_class_0::MemWrite       1470930      2.23%     89.69% # Class of committed instruction
system.cpu0.commit.op_class_0::FloatMemRead      6166464      9.36%     99.05% # Class of committed instruction
system.cpu0.commit.op_class_0::FloatMemWrite       627366      0.95%    100.00% # Class of committed instruction
system.cpu0.commit.op_class_0::IprAccess            0      0.00%    100.00% # Class of committed instruction
system.cpu0.commit.op_class_0::InstPrefetch            0      0.00%    100.00% # Class of committed instruction
system.cpu0.commit.op_class_0::total         65914994                       # Class of committed instruction
system.cpu0.commit.bw_lim_events              4457595                       # number cycles where commit BW limit reached
system.cpu0.rob.rob_reads                   101421418                       # The number of ROB reads
system.cpu0.rob.rob_writes                  154859060                       # The number of ROB writes
system.cpu0.committedInsts                   37126329                       # Number of Instructions Simulated
system.cpu0.committedOps                     65914994                       # Number of Ops (including micro ops) Simulated
system.cpu0.cpi                              0.822454                       # CPI: Cycles Per Instruction
system.cpu0.cpi_total                        0.822454                       # CPI: Total CPI of All Threads
system.cpu0.ipc                              1.215874                       # IPC: Instructions Per Cycle
system.cpu0.ipc_total                        1.215874                       # IPC: Total IPC of All Threads
system.cpu0.int_regfile_reads                56292991                       # number of integer regfile reads
system.cpu0.int_regfile_writes               28629842                       # number of integer regfile writes
system.cpu0.fp_regfile_reads                 64803342                       # number of floating regfile reads
system.cpu0.fp_regfile_writes                33318361                       # number of floating regfile writes
system.cpu0.cc_regfile_reads                 20623590                       # number of cc regfile reads
system.cpu0.cc_regfile_writes                13417622                       # number of cc regfile writes
system.cpu0.misc_regfile_reads               24190289                       # number of misc regfile reads
system.cpu0.dcache.tags.pwrStateResidencyTicks::UNDEFINED  15267344125                       # Cumulative time (in ticks) in various power states
system.cpu0.dcache.tags.replacements            14267                       # number of replacements
system.cpu0.dcache.tags.tagsinuse                1024                       # Cycle average of tags in use
system.cpu0.dcache.tags.total_refs            1096642                       # Total number of references to valid blocks.
system.cpu0.dcache.tags.sampled_refs            14267                       # Sample count of references to valid blocks.
system.cpu0.dcache.tags.avg_refs            76.865634                       # Average number of references to valid blocks.
system.cpu0.dcache.tags.warmup_cycle                0                       # Cycle when the warmup percentage was hit.
system.cpu0.dcache.tags.occ_blocks::cpu0.data         1024                       # Average occupied blocks per requestor
system.cpu0.dcache.tags.occ_percent::cpu0.data            1                       # Average percentage of cache occupancy
system.cpu0.dcache.tags.occ_percent::total            1                       # Average percentage of cache occupancy
system.cpu0.dcache.tags.occ_task_id_blocks::1024         1024                       # Occupied blocks per task id
system.cpu0.dcache.tags.age_task_id_blocks_1024::0            9                       # Occupied blocks per task id
system.cpu0.dcache.tags.age_task_id_blocks_1024::1           85                       # Occupied blocks per task id
system.cpu0.dcache.tags.age_task_id_blocks_1024::2          706                       # Occupied blocks per task id
system.cpu0.dcache.tags.age_task_id_blocks_1024::3            4                       # Occupied blocks per task id
system.cpu0.dcache.tags.age_task_id_blocks_1024::4          220                       # Occupied blocks per task id
system.cpu0.dcache.tags.occ_task_id_percent::1024            1                       # Percentage of cache occupancy per task id
system.cpu0.dcache.tags.tag_accesses         42488819                       # Number of tag accesses
system.cpu0.dcache.tags.data_accesses        42488819                       # Number of data accesses
system.cpu0.dcache.pwrStateResidencyTicks::UNDEFINED  15267344125                       # Cumulative time (in ticks) in various power states
system.cpu0.dcache.ReadReq_hits::cpu0.data      8505998                       # number of ReadReq hits
system.cpu0.dcache.ReadReq_hits::total        8505998                       # number of ReadReq hits
system.cpu0.dcache.WriteReq_hits::cpu0.data      2098296                       # number of WriteReq hits
system.cpu0.dcache.WriteReq_hits::total       2098296                       # number of WriteReq hits
system.cpu0.dcache.demand_hits::cpu0.data     10604294                       # number of demand (read+write) hits
system.cpu0.dcache.demand_hits::total        10604294                       # number of demand (read+write) hits
system.cpu0.dcache.overall_hits::cpu0.data     10604294                       # number of overall hits
system.cpu0.dcache.overall_hits::total       10604294                       # number of overall hits
system.cpu0.dcache.ReadReq_misses::cpu0.data        14344                       # number of ReadReq misses
system.cpu0.dcache.ReadReq_misses::total        14344                       # number of ReadReq misses
system.cpu0.dcache.demand_misses::cpu0.data        14344                       # number of demand (read+write) misses
system.cpu0.dcache.demand_misses::total         14344                       # number of demand (read+write) misses
system.cpu0.dcache.overall_misses::cpu0.data        14344                       # number of overall misses
system.cpu0.dcache.overall_misses::total        14344                       # number of overall misses
system.cpu0.dcache.ReadReq_miss_latency::cpu0.data   1364716500                       # number of ReadReq miss cycles
system.cpu0.dcache.ReadReq_miss_latency::total   1364716500                       # number of ReadReq miss cycles
system.cpu0.dcache.demand_miss_latency::cpu0.data   1364716500                       # number of demand (read+write) miss cycles
system.cpu0.dcache.demand_miss_latency::total   1364716500                       # number of demand (read+write) miss cycles
system.cpu0.dcache.overall_miss_latency::cpu0.data   1364716500                       # number of overall miss cycles
system.cpu0.dcache.overall_miss_latency::total   1364716500                       # number of overall miss cycles
system.cpu0.dcache.ReadReq_accesses::cpu0.data      8520342                       # number of ReadReq accesses(hits+misses)
system.cpu0.dcache.ReadReq_accesses::total      8520342                       # number of ReadReq accesses(hits+misses)
system.cpu0.dcache.WriteReq_accesses::cpu0.data      2098296                       # number of WriteReq accesses(hits+misses)
system.cpu0.dcache.WriteReq_accesses::total      2098296                       # number of WriteReq accesses(hits+misses)
system.cpu0.dcache.demand_accesses::cpu0.data     10618638                       # number of demand (read+write) accesses
system.cpu0.dcache.demand_accesses::total     10618638                       # number of demand (read+write) accesses
system.cpu0.dcache.overall_accesses::cpu0.data     10618638                       # number of overall (read+write) accesses
system.cpu0.dcache.overall_accesses::total     10618638                       # number of overall (read+write) accesses
system.cpu0.dcache.ReadReq_miss_rate::cpu0.data     0.001684                       # miss rate for ReadReq accesses
system.cpu0.dcache.ReadReq_miss_rate::total     0.001684                       # miss rate for ReadReq accesses
system.cpu0.dcache.demand_miss_rate::cpu0.data     0.001351                       # miss rate for demand accesses
system.cpu0.dcache.demand_miss_rate::total     0.001351                       # miss rate for demand accesses
system.cpu0.dcache.overall_miss_rate::cpu0.data     0.001351                       # miss rate for overall accesses
system.cpu0.dcache.overall_miss_rate::total     0.001351                       # miss rate for overall accesses
system.cpu0.dcache.ReadReq_avg_miss_latency::cpu0.data 95141.975739                       # average ReadReq miss latency
system.cpu0.dcache.ReadReq_avg_miss_latency::total 95141.975739                       # average ReadReq miss latency
system.cpu0.dcache.demand_avg_miss_latency::cpu0.data 95141.975739                       # average overall miss latency
system.cpu0.dcache.demand_avg_miss_latency::total 95141.975739                       # average overall miss latency
system.cpu0.dcache.overall_avg_miss_latency::cpu0.data 95141.975739                       # average overall miss latency
system.cpu0.dcache.overall_avg_miss_latency::total 95141.975739                       # average overall miss latency
system.cpu0.dcache.blocked_cycles::no_mshrs            0                       # number of cycles access was blocked
system.cpu0.dcache.blocked_cycles::no_targets            0                       # number of cycles access was blocked
system.cpu0.dcache.blocked::no_mshrs                0                       # number of cycles access was blocked
system.cpu0.dcache.blocked::no_targets              0                       # number of cycles access was blocked
system.cpu0.dcache.avg_blocked_cycles::no_mshrs          nan                       # average number of cycles each access was blocked
system.cpu0.dcache.avg_blocked_cycles::no_targets          nan                       # average number of cycles each access was blocked
system.cpu0.dcache.writebacks::writebacks        13436                       # number of writebacks
system.cpu0.dcache.writebacks::total            13436                       # number of writebacks
system.cpu0.dcache.ReadReq_mshr_hits::cpu0.data           77                       # number of ReadReq MSHR hits
system.cpu0.dcache.ReadReq_mshr_hits::total           77                       # number of ReadReq MSHR hits
system.cpu0.dcache.demand_mshr_hits::cpu0.data           77                       # number of demand (read+write) MSHR hits
system.cpu0.dcache.demand_mshr_hits::total           77                       # number of demand (read+write) MSHR hits
system.cpu0.dcache.overall_mshr_hits::cpu0.data           77                       # number of overall MSHR hits
system.cpu0.dcache.overall_mshr_hits::total           77                       # number of overall MSHR hits
system.cpu0.dcache.ReadReq_mshr_misses::cpu0.data        14267                       # number of ReadReq MSHR misses
system.cpu0.dcache.ReadReq_mshr_misses::total        14267                       # number of ReadReq MSHR misses
system.cpu0.dcache.demand_mshr_misses::cpu0.data        14267                       # number of demand (read+write) MSHR misses
[...]
system.cpu1.itb_walker_cache.avg_blocked_cycles::no_mshrs          nan                       # average number of cycles each access was blocked
system.cpu1.itb_walker_cache.avg_blocked_cycles::no_targets          nan                       # average number of cycles each access was blocked
system.l2.tags.pwrStateResidencyTicks::UNDEFINED  15267344125                       # Cumulative time (in ticks) in various power states
system.l2.tags.replacements                     14252                       # number of replacements
system.l2.tags.tagsinuse                        16384                       # Cycle average of tags in use
system.l2.tags.total_refs                       14286                       # Total number of references to valid blocks.
system.l2.tags.sampled_refs                     14252                       # Sample count of references to valid blocks.
system.l2.tags.avg_refs                      1.002386                       # Average number of references to valid blocks.
system.l2.tags.warmup_cycle                         0                       # Cycle when the warmup percentage was hit.
system.l2.tags.occ_blocks::cpu0.data            16384                       # Average occupied blocks per requestor
system.l2.tags.occ_percent::cpu0.data               1                       # Average percentage of cache occupancy
system.l2.tags.occ_percent::total                   1                       # Average percentage of cache occupancy
system.l2.tags.occ_task_id_blocks::1024         16384                       # Occupied blocks per task id
system.l2.tags.age_task_id_blocks_1024::0            9                       # Occupied blocks per task id
system.l2.tags.age_task_id_blocks_1024::1           85                       # Occupied blocks per task id
system.l2.tags.age_task_id_blocks_1024::2          845                       # Occupied blocks per task id
system.l2.tags.age_task_id_blocks_1024::3         8387                       # Occupied blocks per task id
system.l2.tags.age_task_id_blocks_1024::4         7058                       # Occupied blocks per task id
system.l2.tags.occ_task_id_percent::1024            1                       # Percentage of cache occupancy per task id
system.l2.tags.tag_accesses                    242524                       # Number of tag accesses
system.l2.tags.data_accesses                   242524                       # Number of data accesses
system.l2.pwrStateResidencyTicks::UNDEFINED  15267344125                       # Cumulative time (in ticks) in various power states
system.l2.WritebackDirty_hits::writebacks        13436                       # number of WritebackDirty hits
system.l2.WritebackDirty_hits::total            13436                       # number of WritebackDirty hits
system.l2.ReadSharedReq_hits::cpu0.data            15                       # number of ReadSharedReq hits
system.l2.ReadSharedReq_hits::total                15                       # number of ReadSharedReq hits
system.l2.demand_hits::cpu0.data                   15                       # number of demand (read+write) hits
system.l2.demand_hits::total                       15                       # number of demand (read+write) hits
system.l2.overall_hits::cpu0.data                  15                       # number of overall hits
system.l2.overall_hits::total                      15                       # number of overall hits
system.l2.ReadSharedReq_misses::cpu0.data        14252                       # number of ReadSharedReq misses
system.l2.ReadSharedReq_misses::total           14252                       # number of ReadSharedReq misses
system.l2.demand_misses::cpu0.data              14252                       # number of demand (read+write) misses
system.l2.demand_misses::total                  14252                       # number of demand (read+write) misses
system.l2.overall_misses::cpu0.data             14252                       # number of overall misses
system.l2.overall_misses::total                 14252                       # number of overall misses
system.l2.ReadSharedReq_miss_latency::cpu0.data   1323656500                       # number of ReadSharedReq miss cycles
system.l2.ReadSharedReq_miss_latency::total   1323656500                       # number of ReadSharedReq miss cycles
system.l2.demand_miss_latency::cpu0.data   1323656500                       # number of demand (read+write) miss cycles
system.l2.demand_miss_latency::total       1323656500                       # number of demand (read+write) miss cycles
system.l2.overall_miss_latency::cpu0.data   1323656500                       # number of overall miss cycles
system.l2.overall_miss_latency::total      1323656500                       # number of overall miss cycles
system.l2.WritebackDirty_accesses::writebacks        13436                       # number of WritebackDirty accesses(hits+misses)
system.l2.WritebackDirty_accesses::total        13436                       # number of WritebackDirty accesses(hits+misses)
system.l2.ReadSharedReq_accesses::cpu0.data        14267                       # number of ReadSharedReq accesses(hits+misses)
system.l2.ReadSharedReq_accesses::total         14267                       # number of ReadSharedReq accesses(hits+misses)
system.l2.demand_accesses::cpu0.data            14267                       # number of demand (read+write) accesses
system.l2.demand_accesses::total                14267                       # number of demand (read+write) accesses
system.l2.overall_accesses::cpu0.data           14267                       # number of overall (read+write) accesses
system.l2.overall_accesses::total               14267                       # number of overall (read+write) accesses
system.l2.ReadSharedReq_miss_rate::cpu0.data     0.998949                       # miss rate for ReadSharedReq accesses
system.l2.ReadSharedReq_miss_rate::total     0.998949                       # miss rate for ReadSharedReq accesses
system.l2.demand_miss_rate::cpu0.data        0.998949                       # miss rate for demand accesses
system.l2.demand_miss_rate::total            0.998949                       # miss rate for demand accesses
system.l2.overall_miss_rate::cpu0.data       0.998949                       # miss rate for overall accesses
system.l2.overall_miss_rate::total           0.998949                       # miss rate for overall accesses
system.l2.ReadSharedReq_avg_miss_latency::cpu0.data 92875.140331                       # average ReadSharedReq miss latency
system.l2.ReadSharedReq_avg_miss_latency::total 92875.140331                       # average ReadSharedReq miss latency
system.l2.demand_avg_miss_latency::cpu0.data 92875.140331                       # average overall miss latency
system.l2.demand_avg_miss_latency::total 92875.140331                       # average overall miss latency
system.l2.overall_avg_miss_latency::cpu0.data 92875.140331                       # average overall miss latency
system.l2.overall_avg_miss_latency::total 92875.140331                       # average overall miss latency
system.l2.blocked_cycles::no_mshrs                  0                       # number of cycles access was blocked
system.l2.blocked_cycles::no_targets                0                       # number of cycles access was blocked
system.l2.blocked::no_mshrs                         0                       # number of cycles access was blocked
system.l2.blocked::no_targets                       0                       # number of cycles access was blocked
system.l2.avg_blocked_cycles::no_mshrs            nan                       # average number of cycles each access was blocked
system.l2.avg_blocked_cycles::no_targets          nan                       # average number of cycles each access was blocked
system.l2.writebacks::writebacks                13424                       # number of writebacks
system.l2.writebacks::total                     13424                       # number of writebacks
system.l2.CleanEvict_mshr_misses::writebacks            1                       # number of CleanEvict MSHR misses
system.l2.CleanEvict_mshr_misses::total             1                       # number of CleanEvict MSHR misses
system.l2.ReadSharedReq_mshr_misses::cpu0.data        14252                       # number of ReadSharedReq MSHR misses
system.l2.ReadSharedReq_mshr_misses::total        14252                       # number of ReadSharedReq MSHR misses
system.l2.demand_mshr_misses::cpu0.data         14252                       # number of demand (read+write) MSHR misses
system.l2.demand_mshr_misses::total             14252                       # number of demand (read+write) MSHR misses
system.l2.overall_mshr_misses::cpu0.data        14252                       # number of overall MSHR misses
system.l2.overall_mshr_misses::total            14252                       # number of overall MSHR misses
system.l2.ReadSharedReq_mshr_miss_latency::cpu0.data   1181136500                       # number of ReadSharedReq MSHR miss cycles
system.l2.ReadSharedReq_mshr_miss_latency::total   1181136500                       # number of ReadSharedReq MSHR miss cycles
system.l2.demand_mshr_miss_latency::cpu0.data   1181136500                       # number of demand (read+write) MSHR miss cycles
system.l2.demand_mshr_miss_latency::total   1181136500                       # number of demand (read+write) MSHR miss cycles
system.l2.overall_mshr_miss_latency::cpu0.data   1181136500                       # number of overall MSHR miss cycles
system.l2.overall_mshr_miss_latency::total   1181136500                       # number of overall MSHR miss cycles
system.l2.CleanEvict_mshr_miss_rate::writebacks          inf                       # mshr miss rate for CleanEvict accesses
system.l2.CleanEvict_mshr_miss_rate::total          inf                       # mshr miss rate for CleanEvict accesses
system.l2.ReadSharedReq_mshr_miss_rate::cpu0.data     0.998949                       # mshr miss rate for ReadSharedReq accesses
system.l2.ReadSharedReq_mshr_miss_rate::total     0.998949                       # mshr miss rate for ReadSharedReq accesses
system.l2.demand_mshr_miss_rate::cpu0.data     0.998949                       # mshr miss rate for demand accesses
system.l2.demand_mshr_miss_rate::total       0.998949                       # mshr miss rate for demand accesses
system.l2.overall_mshr_miss_rate::cpu0.data     0.998949                       # mshr miss rate for overall accesses
system.l2.overall_mshr_miss_rate::total      0.998949                       # mshr miss rate for overall accesses
system.l2.ReadSharedReq_avg_mshr_miss_latency::cpu0.data 82875.140331                       # average ReadSharedReq mshr miss latency
system.l2.ReadSharedReq_avg_mshr_miss_latency::total 82875.140331                       # average ReadSharedReq mshr miss latency
system.l2.demand_avg_mshr_miss_latency::cpu0.data 82875.140331                       # average overall mshr miss latency
system.l2.demand_avg_mshr_miss_latency::total 82875.140331                       # average overall mshr miss latency
system.l2.overall_avg_mshr_miss_latency::cpu0.data 82875.140331                       # average overall mshr miss latency
system.l2.overall_avg_mshr_miss_latency::total 82875.140331                       # average overall mshr miss latency
system.membus.snoop_filter.tot_requests         28503                       # Total number of requests made to the snoop filter.
system.membus.snoop_filter.hit_single_requests        14251                       # Number of requests hitting in the snoop filter with a single holder of the requested data.
system.membus.snoop_filter.hit_multi_requests            0                       # Number of requests hitting in the snoop filter with multiple (>1) holders of the requested data.
system.membus.snoop_filter.tot_snoops               0                       # Total number of snoops made to the snoop filter.
system.membus.snoop_filter.hit_single_snoops            0                       # Number of snoops hitting in the snoop filter with a single holder of the requested data.
system.membus.snoop_filter.hit_multi_snoops            0                       # Number of snoops hitting in the snoop filter with multiple (>1) holders of the requested data.
system.membus.pwrStateResidencyTicks::UNDEFINED  15267344125                       # Cumulative time (in ticks) in various power states
system.membus.trans_dist::ReadResp              14252                       # Transaction distribution
system.membus.trans_dist::WritebackDirty        13424                       # Transaction distribution
system.membus.trans_dist::CleanEvict              827                       # Transaction distribution
system.membus.trans_dist::ReadSharedReq         14252                       # Transaction distribution
system.membus.pkt_count_system.l2.mem_side::system.mem_ctrls.port        42755                       # Packet count per connected master and slave (bytes)
system.membus.pkt_count_system.l2.mem_side::total        42755                       # Packet count per connected master and slave (bytes)
system.membus.pkt_count::total                  42755                       # Packet count per connected master and slave (bytes)
system.membus.pkt_size_system.l2.mem_side::system.mem_ctrls.port      1771264                       # Cumulative packet size per connected master and slave (bytes)
system.membus.pkt_size_system.l2.mem_side::total      1771264                       # Cumulative packet size per connected master and slave (bytes)
system.membus.pkt_size::total                 1771264                       # Cumulative packet size per connected master and slave (bytes)
system.membus.snoops                                0                       # Total snoops (count)
system.membus.snoopTraffic                          0                       # Total snoop traffic (bytes)
system.membus.snoop_fanout::samples             14252                       # Request fanout histogram
system.membus.snoop_fanout::mean                    0                       # Request fanout histogram
system.membus.snoop_fanout::stdev                   0                       # Request fanout histogram
system.membus.snoop_fanout::underflows              0      0.00%      0.00% # Request fanout histogram
system.membus.snoop_fanout::0                   14252    100.00%    100.00% # Request fanout histogram
system.membus.snoop_fanout::1                       0      0.00%    100.00% # Request fanout histogram
system.membus.snoop_fanout::overflows               0      0.00%    100.00% # Request fanout histogram
system.membus.snoop_fanout::min_value               0                       # Request fanout histogram
system.membus.snoop_fanout::max_value               0                       # Request fanout histogram
system.membus.snoop_fanout::total               14252                       # Request fanout histogram
system.membus.reqLayer4.occupancy            85829500                       # Layer occupancy (ticks)
system.membus.reqLayer4.utilization               0.6                       # Layer utilization (%)
system.membus.respLayer1.occupancy           75912750                       # Layer occupancy (ticks)
system.membus.respLayer1.utilization              0.5                       # Layer utilization (%)
system.tol2bus.snoop_filter.tot_requests        28534                       # Total number of requests made to the snoop filter.
system.tol2bus.snoop_filter.hit_single_requests        14267                       # Number of requests hitting in the snoop filter with a single holder of the requested data.
system.tol2bus.snoop_filter.hit_multi_requests            0                       # Number of requests hitting in the snoop filter with multiple (>1) holders of the requested data.
system.tol2bus.snoop_filter.tot_snoops              2                       # Total number of snoops made to the snoop filter.
system.tol2bus.snoop_filter.hit_single_snoops            2                       # Number of snoops hitting in the snoop filter with a single holder of the requested data.
system.tol2bus.snoop_filter.hit_multi_snoops            0                       # Number of snoops hitting in the snoop filter with multiple (>1) holders of the requested data.
system.tol2bus.pwrStateResidencyTicks::UNDEFINED  15267344125                       # Cumulative time (in ticks) in various power states
system.tol2bus.trans_dist::ReadResp             14267                       # Transaction distribution
system.tol2bus.trans_dist::WritebackDirty        26860                       # Transaction distribution
system.tol2bus.trans_dist::CleanEvict            1659                       # Transaction distribution
system.tol2bus.trans_dist::ReadSharedReq        14267                       # Transaction distribution
system.tol2bus.pkt_count_system.cpu0.dcache.mem_side::system.l2.cpu_side        42801                       # Packet count per connected master and slave (bytes)
system.tol2bus.pkt_count::total                 42801                       # Packet count per connected master and slave (bytes)
system.tol2bus.pkt_size_system.cpu0.dcache.mem_side::system.l2.cpu_side      1772992                       # Cumulative packet size per connected master and slave (bytes)
system.tol2bus.pkt_size::total                1772992                       # Cumulative packet size per connected master and slave (bytes)
system.tol2bus.snoops                           14252                       # Total snoops (count)
system.tol2bus.snoopTraffic                    859136                       # Total snoop traffic (bytes)
system.tol2bus.snoop_fanout::samples            28519                       # Request fanout histogram
system.tol2bus.snoop_fanout::mean            0.000070                       # Request fanout histogram
system.tol2bus.snoop_fanout::stdev           0.008374                       # Request fanout histogram
system.tol2bus.snoop_fanout::underflows             0      0.00%      0.00% # Request fanout histogram
system.tol2bus.snoop_fanout::0                  28517     99.99%     99.99% # Request fanout histogram
system.tol2bus.snoop_fanout::1                      2      0.01%    100.00% # Request fanout histogram
system.tol2bus.snoop_fanout::2                      0      0.00%    100.00% # Request fanout histogram
system.tol2bus.snoop_fanout::3                      0      0.00%    100.00% # Request fanout histogram
system.tol2bus.snoop_fanout::4                      0      0.00%    100.00% # Request fanout histogram
system.tol2bus.snoop_fanout::5                      0      0.00%    100.00% # Request fanout histogram
system.tol2bus.snoop_fanout::6                      0      0.00%    100.00% # Request fanout histogram
system.tol2bus.snoop_fanout::7                      0      0.00%    100.00% # Request fanout histogram
system.tol2bus.snoop_fanout::8                      0      0.00%    100.00% # Request fanout histogram
system.tol2bus.snoop_fanout::overflows              0      0.00%    100.00% # Request fanout histogram
system.tol2bus.snoop_fanout::min_value              0                       # Request fanout histogram
system.tol2bus.snoop_fanout::max_value              1                       # Request fanout histogram
system.tol2bus.snoop_fanout::total              28519                       # Request fanout histogram
system.tol2bus.reqLayer0.occupancy           27703000                       # Layer occupancy (ticks)
system.tol2bus.reqLayer0.utilization              0.2                       # Layer utilization (%)
system.tol2bus.respLayer1.occupancy          21400500                       # Layer occupancy (ticks)
system.tol2bus.respLayer1.utilization             0.1                       # Layer utilization (%)

---------- End Simulation Statistics   ----------
