
---------- Begin Simulation Statistics ----------
sim_seconds                                  0.015267                       # Number of seconds simulated
sim_ticks                                 15267344125                       # Number of ticks simulated
final_tick                               5465709196750                       # Number of ticks from beginning of simulation (restored from checkpoints and never reset)
sim_freq                                 1000000000000                       # Frequency of simulated ticks
host_inst_rate                               73489155                       # Simulator instruction rate (inst/s)
host_op_rate                                136455350                       # Simulator op (including micro ops) rate (op/s)
host_tick_rate                              195785042                       # Simulator tick rate (ticks/s)
host_mem_usage                                1248976                       # Number of bytes of host memory used
host_seconds                                    77.98                       # Real time elapsed on the host
sim_insts                                  5730693047                       # Number of instructions simulated
sim_ops                                   10640805546                       # Number of ops (including micro ops) simulated
system.voltage_domain.voltage                       1                       # Voltage in Volts
system.clk_domain.clock                          1000                       # Clock period in ticks
system.mem_ctrls.pwrStateResidencyTicks::UNDEFINED  15267344125                       # Cumulative time (in ticks) in various power states
system.mem_ctrls.bytes_read::cpu0.inst             64                       # Number of bytes read from this memory
system.mem_ctrls.bytes_read::cpu0.data       12564928                       # Number of bytes read from this memory
system.mem_ctrls.bytes_read::total           12564992                       # Number of bytes read from this memory
system.mem_ctrls.bytes_inst_read::cpu0.inst           64                       # Number of instructions bytes read from this memory
system.mem_ctrls.bytes_inst_read::total            64                       # Number of instructions bytes read from this memory
system.mem_ctrls.bytes_written::writebacks        27712                       # Number of bytes written to this memory
system.mem_ctrls.bytes_written::total           27712                       # Number of bytes written to this memory
system.mem_ctrls.num_reads::cpu0.inst               1                       # Number of read requests responded to by this memory
system.mem_ctrls.num_reads::cpu0.data          196327                       # Number of read requests responded to by this memory
system.mem_ctrls.num_reads::total              196328                       # Number of read requests responded to by this memory
system.mem_ctrls.num_writes::writebacks           433                       # Number of write requests responded to by this memory
system.mem_ctrls.num_writes::total                433                       # Number of write requests responded to by this memory
system.mem_ctrls.bw_read::cpu0.inst              4192                       # Total read bandwidth from this memory (bytes/s)
system.mem_ctrls.bw_read::cpu0.data         822993698                       # Total read bandwidth from this memory (bytes/s)
system.mem_ctrls.bw_read::total             822997890                       # Total read bandwidth from this memory (bytes/s)
system.mem_ctrls.bw_inst_read::cpu0.inst         4192                       # Instruction read bandwidth from this memory (bytes/s)
system.mem_ctrls.bw_inst_read::total             4192                       # Instruction read bandwidth from this memory (bytes/s)
system.mem_ctrls.bw_write::writebacks         1815116                       # Write bandwidth from this memory (bytes/s)
system.mem_ctrls.bw_write::total              1815116                       # Write bandwidth from this memory (bytes/s)
system.mem_ctrls.bw_total::writebacks         1815116                       # Total bandwidth to/from this memory (bytes/s)
system.mem_ctrls.bw_total::cpu0.inst             4192                       # Total bandwidth to/from this memory (bytes/s)
system.mem_ctrls.bw_total::cpu0.data        822993698                       # Total bandwidth to/from this memory (bytes/s)
system.mem_ctrls.bw_total::total            824813006                       # Total bandwidth to/from this memory (bytes/s)
system.mem_ctrls.readReqs                      196328                       # Number of read requests accepted
system.mem_ctrls.writeReqs                        433                       # Number of write requests accepted
system.mem_ctrls.readBursts                    196328                       # Number of DRAM read bursts, including those serviced by the write queue
system.mem_ctrls.writeBursts                      433                       # Number of DRAM write bursts, including those merged in the write queue
system.mem_ctrls.bytesReadDRAM               12562624                       # Total number of bytes read from DRAM
system.mem_ctrls.bytesReadWrQ                    2368                       # Total number of bytes read from write queue
system.mem_ctrls.bytesWritten                   27776                       # Total number of bytes written to DRAM
system.mem_ctrls.bytesReadSys                12564992                       # Total read bytes from the system interface side
system.mem_ctrls.bytesWrittenSys                27712                       # Total written bytes from the system interface side
system.mem_ctrls.servicedByWrQ                     37                       # Number of DRAM read bursts serviced by the write queue
system.mem_ctrls.mergedWrBursts                     3                       # Number of DRAM write bursts merged with an existing one
system.mem_ctrls.neitherReadNorWriteReqs            0                       # Number of requests that are neither read nor write
system.mem_ctrls.perBankRdBursts::0             12260                       # Per bank write bursts
system.mem_ctrls.perBankRdBursts::1             12049                       # Per bank write bursts
system.mem_ctrls.perBankRdBursts::2             12518                       # Per bank write bursts
system.mem_ctrls.perBankRdBursts::3             12123                       # Per bank write bursts
system.mem_ctrls.perBankRdBursts::4             12095                       # Per bank write bursts
system.mem_ctrls.perBankRdBursts::5             12037                       # Per bank write bursts
system.mem_ctrls.perBankRdBursts::6             12124                       # Per bank write bursts
system.mem_ctrls.perBankRdBursts::7             11902                       # Per bank write bursts
system.mem_ctrls.perBankRdBursts::8             12041                       # Per bank write bursts
system.mem_ctrls.perBankRdBursts::9             12311                       # Per bank write bursts
system.mem_ctrls.perBankRdBursts::10            12121                       # Per bank write bursts
system.mem_ctrls.perBankRdBursts::11            12510                       # Per bank write bursts
system.mem_ctrls.perBankRdBursts::12            12882                       # Per bank write bursts
system.mem_ctrls.perBankRdBursts::13            12530                       # Per bank write bursts
system.mem_ctrls.perBankRdBursts::14            12593                       # Per bank write bursts
system.mem_ctrls.perBankRdBursts::15            12195                       # Per bank write bursts
system.mem_ctrls.perBankWrBursts::0                 0                       # Per bank write bursts
system.mem_ctrls.perBankWrBursts::1                 0                       # Per bank write bursts
system.mem_ctrls.perBankWrBursts::2                 0                       # Per bank write bursts
system.mem_ctrls.perBankWrBursts::3                 0                       # Per bank write bursts
system.mem_ctrls.perBankWrBursts::4                 0                       # Per bank write bursts
system.mem_ctrls.perBankWrBursts::5                 0                       # Per bank write bursts
system.mem_ctrls.perBankWrBursts::6                25                       # Per bank write bursts
system.mem_ctrls.perBankWrBursts::7                 0                       # Per bank write bursts
system.mem_ctrls.perBankWrBursts::8                 0                       # Per bank write bursts
system.mem_ctrls.perBankWrBursts::9                 0                       # Per bank write bursts
system.mem_ctrls.perBankWrBursts::10               29                       # Per bank write bursts
system.mem_ctrls.perBankWrBursts::11              128                       # Per bank write bursts
system.mem_ctrls.perBankWrBursts::12              240                       # Per bank write bursts
system.mem_ctrls.perBankWrBursts::13                0                       # Per bank write bursts
system.mem_ctrls.perBankWrBursts::14                0                       # Per bank write bursts
system.mem_ctrls.perBankWrBursts::15               12                       # Per bank write bursts
system.mem_ctrls.numRdRetry                         0                       # Number of times read queue was full causing retry
system.mem_ctrls.numWrRetry                         0                       # Number of times write queue was full causing retry
system.mem_ctrls.totGap                   15267359000                       # Total gap between requests
system.mem_ctrls.readPktSize::0                     0                       # Read request sizes (log2)
system.mem_ctrls.readPktSize::1                     0                       # Read request sizes (log2)
system.mem_ctrls.readPktSize::2                     0                       # Read request sizes (log2)
system.mem_ctrls.readPktSize::3                     0                       # Read request sizes (log2)
system.mem_ctrls.readPktSize::4                     0                       # Read request sizes (log2)
system.mem_ctrls.readPktSize::5                     0                       # Read request sizes (log2)
system.mem_ctrls.readPktSize::6                196328                       # Read request sizes (log2)
system.mem_ctrls.writePktSize::0                    0                       # Write request sizes (log2)
system.mem_ctrls.writePktSize::1                    0                       # Write request sizes (log2)
system.mem_ctrls.writePktSize::2                    0                       # Write request sizes (log2)
system.mem_ctrls.writePktSize::3                    0                       # Write request sizes (log2)
system.mem_ctrls.writePktSize::4                    0                       # Write request sizes (log2)
system.mem_ctrls.writePktSize::5                    0                       # Write request sizes (log2)
system.mem_ctrls.writePktSize::6                  433                       # Write request sizes (log2)
system.mem_ctrls.rdQLenPdf::0                  148662                       # What read queue length does an incoming req see
system.mem_ctrls.rdQLenPdf::1                   44752                       # What read queue length does an incoming req see
system.mem_ctrls.rdQLenPdf::2                    2845                       # What read queue length does an incoming req see
system.mem_ctrls.rdQLenPdf::3                      32                       # What read queue length does an incoming req see
system.mem_ctrls.rdQLenPdf::4                       0                       # What read queue length does an incoming req see
system.mem_ctrls.rdQLenPdf::5                       0                       # What read queue length does an incoming req see
system.mem_ctrls.rdQLenPdf::6                       0                       # What read queue length does an incoming req see
system.mem_ctrls.rdQLenPdf::7                       0                       # What read queue length does an incoming req see
system.mem_ctrls.rdQLenPdf::8                       0                       # What read queue length does an incoming req see
system.mem_ctrls.rdQLenPdf::9                       0                       # What read queue length does an incoming req see
system.mem_ctrls.rdQLenPdf::10                      0                       # What read queue length does an incoming req see
system.mem_ctrls.rdQLenPdf::11                      0                       # What read queue length does an incoming req see
system.mem_ctrls.rdQLenPdf::12                      0                       # What read queue length does an incoming req see
system.mem_ctrls.rdQLenPdf::13                      0                       # What read queue length does an incoming req see
system.mem_ctrls.rdQLenPdf::14                      0                       # What read queue length does an incoming req see
system.mem_ctrls.rdQLenPdf::15                      0                       # What read queue length does an incoming req see
system.mem_ctrls.rdQLenPdf::16                      0                       # What read queue length does an incoming req see
system.mem_ctrls.rdQLenPdf::17                      0                       # What read queue length does an incoming req see
system.mem_ctrls.rdQLenPdf::18                      0                       # What read queue length does an incoming req see
system.mem_ctrls.rdQLenPdf::19                      0                       # What read queue length does an incoming req see
system.mem_ctrls.rdQLenPdf::20                      0                       # What read queue length does an incoming req see
system.mem_ctrls.rdQLenPdf::21                      0                       # What read queue length does an incoming req see
system.mem_ctrls.rdQLenPdf::22                      0                       # What read queue length does an incoming req see
system.mem_ctrls.rdQLenPdf::23                      0                       # What read queue length does an incoming req see
system.mem_ctrls.rdQLenPdf::24                      0                       # What read queue length does an incoming req see
system.mem_ctrls.rdQLenPdf::25                      0                       # What read queue length does an incoming req see
system.mem_ctrls.rdQLenPdf::26                      0                       # What read queue length does an incoming req see
system.mem_ctrls.rdQLenPdf::27                      0                       # What read queue length does an incoming req see
system.mem_ctrls.rdQLenPdf::28                      0                       # What read queue length does an incoming req see
system.mem_ctrls.rdQLenPdf::29                      0                       # What read queue length does an incoming req see
system.mem_ctrls.rdQLenPdf::30                      0                       # What read queue length does an incoming req see
system.mem_ctrls.rdQLenPdf::31                      0                       # What read queue length does an incoming req see
system.mem_ctrls.wrQLenPdf::0                       0                       # What write queue length does an incoming req see
system.mem_ctrls.wrQLenPdf::1                       0                       # What write queue length does an incoming req see
system.mem_ctrls.wrQLenPdf::2                       0                       # What write queue length does an incoming req see
system.mem_ctrls.wrQLenPdf::3                       0                       # What write queue length does an incoming req see
system.mem_ctrls.wrQLenPdf::4                       0                       # What write queue length does an incoming req see
system.mem_ctrls.wrQLenPdf::5                       0                       # What write queue length does an incoming req see
system.mem_ctrls.wrQLenPdf::6                       0                       # What write queue length does an incoming req see
system.mem_ctrls.wrQLenPdf::7                       0                       # What write queue length does an incoming req see
system.mem_ctrls.wrQLenPdf::8                       0                       # What write queue length does an incoming req see
system.mem_ctrls.wrQLenPdf::9                       0                       # What write queue length does an incoming req see
system.mem_ctrls.wrQLenPdf::10                      0                       # What write queue length does an incoming req see
system.mem_ctrls.wrQLenPdf::11                      0                       # What write queue length does an incoming req see
system.mem_ctrls.wrQLenPdf::12                      0                       # What write queue length does an incoming req see
system.mem_ctrls.wrQLenPdf::13                      0                       # What write queue length does an incoming req see
system.mem_ctrls.wrQLenPdf::14                      0                       # What write queue length does an incoming req see
system.mem_ctrls.wrQLenPdf::15                      1                       # What write queue length does an incoming req see
system.mem_ctrls.wrQLenPdf::16                      1                       # What write queue length does an incoming req see
system.mem_ctrls.wrQLenPdf::17                     27                       # What write queue length does an incoming req see
system.mem_ctrls.wrQLenPdf::18                     27                       # What write queue length does an incoming req see
system.mem_ctrls.wrQLenPdf::19                     27                       # What write queue length does an incoming req see
system.mem_ctrls.wrQLenPdf::20                     27                       # What write queue length does an incoming req see
system.mem_ctrls.wrQLenPdf::21                     27                       # What write queue length does an incoming req see
system.mem_ctrls.wrQLenPdf::22                     27                       # What write queue length does an incoming req see
system.mem_ctrls.wrQLenPdf::23                     27                       # What write queue length does an incoming req see
system.mem_ctrls.wrQLenPdf::24                     27                       # What write queue length does an incoming req see
system.mem_ctrls.wrQLenPdf::25                     27                       # What write queue length does an incoming req see
system.mem_ctrls.wrQLenPdf::26                     27                       # What write queue length does an incoming req see
system.mem_ctrls.wrQLenPdf::27                     27                       # What write queue length does an incoming req see
system.mem_ctrls.wrQLenPdf::28                     26                       # What write queue length does an incoming req see
system.mem_ctrls.wrQLenPdf::29                     26                       # What write queue length does an incoming req see
system.mem_ctrls.wrQLenPdf::30                     26                       # What write queue length does an incoming req see
system.mem_ctrls.wrQLenPdf::31                     26                       # What write queue length does an incoming req see
system.mem_ctrls.wrQLenPdf::32                     27                       # What write queue length does an incoming req see
system.mem_ctrls.wrQLenPdf::33                      0                       # What write queue length does an incoming req see
system.mem_ctrls.wrQLenPdf::34                      0                       # What write queue length does an incoming req see
system.mem_ctrls.wrQLenPdf::35                      0                       # What write queue length does an incoming req see
system.mem_ctrls.wrQLenPdf::36                      0                       # What write queue length does an incoming req see
system.mem_ctrls.wrQLenPdf::37                      0                       # What write queue length does an incoming req see
system.mem_ctrls.wrQLenPdf::38                      0                       # What write queue length does an incoming req see
system.mem_ctrls.wrQLenPdf::39                      0                       # What write queue length does an incoming req see
system.mem_ctrls.wrQLenPdf::40                      0                       # What write queue length does an incoming req see
system.mem_ctrls.wrQLenPdf::41                      0                       # What write queue length does an incoming req see
system.mem_ctrls.wrQLenPdf::42                      0                       # What write queue length does an incoming req see
system.mem_ctrls.wrQLenPdf::43                      0                       # What write queue length does an incoming req see
system.mem_ctrls.wrQLenPdf::44                      0                       # What write queue length does an incoming req see
system.mem_ctrls.wrQLenPdf::45                      0                       # What write queue length does an incoming req see
system.mem_ctrls.wrQLenPdf::46                      0                       # What write queue length does an incoming req see
system.mem_ctrls.wrQLenPdf::47                      0                       # What write queue length does an incoming req see
system.mem_ctrls.wrQLenPdf::48                      0                       # What write queue length does an incoming req see
system.mem_ctrls.wrQLenPdf::49                      0                       # What write queue length does an incoming req see
system.mem_ctrls.wrQLenPdf::50                      0                       # What write queue length does an incoming req see
system.mem_ctrls.wrQLenPdf::51                      0                       # What write queue length does an incoming req see
system.mem_ctrls.wrQLenPdf::52                      0                       # What write queue length does an incoming req see
system.mem_ctrls.wrQLenPdf::53                      0                       # What write queue length does an incoming req see
system.mem_ctrls.wrQLenPdf::54                      0                       # What write queue length does an incoming req see
system.mem_ctrls.wrQLenPdf::55                      0                       # What write queue length does an incoming req see
system.mem_ctrls.wrQLenPdf::56                      0                       # What write queue length does an incoming req see
system.mem_ctrls.wrQLenPdf::57                      0                       # What write queue length does an incoming req see
system.mem_ctrls.wrQLenPdf::58                      0                       # What write queue length does an incoming req see
system.mem_ctrls.wrQLenPdf::59                      0                       # What write queue length does an incoming req see
system.mem_ctrls.wrQLenPdf::60                      0                       # What write queue length does an incoming req see
system.mem_ctrls.wrQLenPdf::61                      0                       # What write queue length does an incoming req see
system.mem_ctrls.wrQLenPdf::62                      0                       # What write queue length does an incoming req see
system.mem_ctrls.wrQLenPdf::63                      0                       # What write queue length does an incoming req see
system.mem_ctrls.bytesPerActivate::samples        97104                       # Bytes accessed per row activation
system.mem_ctrls.bytesPerActivate::mean    129.672763                       # Bytes accessed per row activation
system.mem_ctrls.bytesPerActivate::gmean   111.412793                       # Bytes accessed per row activation
system.mem_ctrls.bytesPerActivate::stdev    77.608991                       # Bytes accessed per row activation
system.mem_ctrls.bytesPerActivate::0-127        41080     42.31%     42.31% # Bytes accessed per row activation
system.mem_ctrls.bytesPerActivate::128-255        44720     46.05%     88.36% # Bytes accessed per row activation
system.mem_ctrls.bytesPerActivate::256-383         9787     10.08%     98.44% # Bytes accessed per row activation
system.mem_ctrls.bytesPerActivate::384-511         1333      1.37%     99.81% # Bytes accessed per row activation
system.mem_ctrls.bytesPerActivate::512-639          149      0.15%     99.96% # Bytes accessed per row activation
system.mem_ctrls.bytesPerActivate::640-767           13      0.01%     99.98% # Bytes accessed per row activation
system.mem_ctrls.bytesPerActivate::768-895            5      0.01%     99.98% # Bytes accessed per row activation
system.mem_ctrls.bytesPerActivate::896-1023            7      0.01%     99.99% # Bytes accessed per row activation
system.mem_ctrls.bytesPerActivate::1024-1151           10      0.01%    100.00% # Bytes accessed per row activation
system.mem_ctrls.bytesPerActivate::total        97104                       # Bytes accessed per row activation
system.mem_ctrls.rdPerTurnAround::samples           27                       # Reads before turning the bus around for writes
system.mem_ctrls.rdPerTurnAround::mean    7392.370370                       # Reads before turning the bus around for writes
system.mem_ctrls.rdPerTurnAround::gmean   7015.754322                       # Reads before turning the bus around for writes
system.mem_ctrls.rdPerTurnAround::stdev   2377.336958                       # Reads before turning the bus around for writes
system.mem_ctrls.rdPerTurnAround::3072-3583            1      3.70%      3.70% # Reads before turning the bus around for writes
system.mem_ctrls.rdPerTurnAround::3584-4095            1      3.70%      7.41% # Reads before turning the bus around for writes
system.mem_ctrls.rdPerTurnAround::4096-4607            2      7.41%     14.81% # Reads before turning the bus around for writes
system.mem_ctrls.rdPerTurnAround::4608-5119            1      3.70%     18.52% # Reads before turning the bus around for writes
system.mem_ctrls.rdPerTurnAround::5120-5631            1      3.70%     22.22% # Reads before turning the bus around for writes
system.mem_ctrls.rdPerTurnAround::5632-6143            3     11.11%     33.33% # Reads before turning the bus around for writes
system.mem_ctrls.rdPerTurnAround::6144-6655            3     11.11%     44.44% # Reads before turning the bus around for writes
system.mem_ctrls.rdPerTurnAround::6656-7167            3     11.11%     55.56% # Reads before turning the bus around for writes
system.mem_ctrls.rdPerTurnAround::7680-8191            3     11.11%     66.67% # Reads before turning the bus around for writes
system.mem_ctrls.rdPerTurnAround::8192-8703            2      7.41%     74.07% # Reads before turning the bus around for writes
system.mem_ctrls.rdPerTurnAround::8704-9215            1      3.70%     77.78% # Reads before turning the bus around for writes
system.mem_ctrls.rdPerTurnAround::9728-10239            1      3.70%     81.48% # Reads before turning the bus around for writes
system.mem_ctrls.rdPerTurnAround::10240-10751            3     11.11%     92.59% # Reads before turning the bus around for writes
system.mem_ctrls.rdPerTurnAround::10752-11263            1      3.70%     96.30% # Reads before turning the bus around for writes
system.mem_ctrls.rdPerTurnAround::12288-12799            1      3.70%    100.00% # Reads before turning the bus around for writes
system.mem_ctrls.rdPerTurnAround::total            27                       # Reads before turning the bus around for writes
system.mem_ctrls.wrPerTurnAround::samples           27                       # Writes before turning the bus around for reads
system.mem_ctrls.wrPerTurnAround::mean      16.074074                       # Writes before turning the bus around for reads
system.mem_ctrls.wrPerTurnAround::gmean     16.069950                       # Writes before turning the bus around for reads
system.mem_ctrls.wrPerTurnAround::stdev      0.384900                       # Writes before turning the bus around for reads
system.mem_ctrls.wrPerTurnAround::16               26     96.30%     96.30% # Writes before turning the bus around for reads
system.mem_ctrls.wrPerTurnAround::18                1      3.70%    100.00% # Writes before turning the bus around for reads
system.mem_ctrls.wrPerTurnAround::total            27                       # Writes before turning the bus around for reads
system.mem_ctrls.totQLat                   4828904500                       # Total ticks spent queuing
system.mem_ctrls.totMemAccLat              8509360750                       # Total ticks spent from burst creation until serviced by the DRAM
system.mem_ctrls.totBusLat                  981455000                       # Total ticks spent in databus transfers
system.mem_ctrls.avgQLat                     24600.74                       # Average queueing delay per DRAM burst
system.mem_ctrls.avgBusLat                    5000.00                       # Average bus latency per DRAM burst
system.mem_ctrls.avgMemAccLat                43350.74                       # Average memory access latency per DRAM burst
system.mem_ctrls.avgRdBW                       822.84                       # Average DRAM read bandwidth in MiByte/s
system.mem_ctrls.avgWrBW                         1.82                       # Average achieved write bandwidth in MiByte/s
system.mem_ctrls.avgRdBWSys                    823.00                       # Average system read bandwidth in MiByte/s
system.mem_ctrls.avgWrBWSys                      1.82                       # Average system write bandwidth in MiByte/s
system.mem_ctrls.peakBW                      12800.00                       # Theoretical peak bandwidth in MiByte/s
system.mem_ctrls.busUtil                         6.44                       # Data bus utilization in percentage
system.mem_ctrls.busUtilRead                     6.43                       # Data bus utilization in percentage for reads
system.mem_ctrls.busUtilWrite                    0.01                       # Data bus utilization in percentage for writes
system.mem_ctrls.avgRdQLen                       1.32                       # Average read queue length when enqueuing
system.mem_ctrls.avgWrQLen                      25.70                       # Average write queue length when enqueuing
system.mem_ctrls.readRowHits                    99247                       # Number of row buffer hits during reads
system.mem_ctrls.writeRowHits                     383                       # Number of row buffer hits during writes
system.mem_ctrls.readRowHitRate                 50.56                       # Row buffer hit rate for reads
system.mem_ctrls.writeRowHitRate                89.07                       # Row buffer hit rate for writes
system.mem_ctrls.avgGap                      77593.42                       # Average gap between requests
system.mem_ctrls.pageHitRate                    50.65                       # Row buffer hit rate, read and write combined
system.mem_ctrls_0.actEnergy                344226540                       # Energy for activate commands per rank (pJ)
system.mem_ctrls_0.preEnergy                182945565                       # Energy for precharge commands per rank (pJ)
system.mem_ctrls_0.readEnergy               693358260                       # Energy for read commands per rank (pJ)
system.mem_ctrls_0.writeEnergy                 130500                       # Energy for write commands per rank (pJ)
system.mem_ctrls_0.refreshEnergy         1204694400.000000                       # Energy for refresh commands per rank (pJ)
system.mem_ctrls_0.actBackEnergy           1622594490                       # Energy for active background per rank (pJ)
system.mem_ctrls_0.preBackEnergy             23816160                       # Energy for precharge background per rank (pJ)
system.mem_ctrls_0.actPowerDownEnergy      5215282830                       # Energy for active power-down per rank (pJ)
system.mem_ctrls_0.prePowerDownEnergy        80631360                       # Energy for precharge power-down per rank (pJ)
system.mem_ctrls_0.selfRefreshEnergy                0                       # Energy for self refresh per rank (pJ)
system.mem_ctrls_0.totalEnergy             9367680105                       # Total energy per rank (pJ)
system.mem_ctrls_0.averagePower            613.576273                       # Core power per rank (mW)
system.mem_ctrls_0.totalIdleTime          11646454250                       # Total Idle time Per DRAM Rank
system.mem_ctrls_0.memoryStateTime::IDLE      8874000                       # Time in different power states
system.mem_ctrls_0.memoryStateTime::REF     509600000                       # Time in different power states
system.mem_ctrls_0.memoryStateTime::SREF            0                       # Time in different power states
system.mem_ctrls_0.memoryStateTime::PRE_PDN    210251750                       # Time in different power states
system.mem_ctrls_0.memoryStateTime::ACT    3102415875                       # Time in different power states
system.mem_ctrls_0.memoryStateTime::ACT_PDN  11436202500                       # Time in different power states
system.mem_ctrls_1.actEnergy                349024620                       # Energy for activate commands per rank (pJ)
system.mem_ctrls_1.preEnergy                185533755                       # Energy for precharge commands per rank (pJ)
system.mem_ctrls_1.readEnergy               708159480                       # Energy for read commands per rank (pJ)
system.mem_ctrls_1.writeEnergy                2134980                       # Energy for write commands per rank (pJ)
system.mem_ctrls_1.refreshEnergy         1205309040.000000                       # Energy for refresh commands per rank (pJ)
system.mem_ctrls_1.actBackEnergy           1646409090                       # Energy for active background per rank (pJ)
system.mem_ctrls_1.preBackEnergy             24528960                       # Energy for precharge background per rank (pJ)
system.mem_ctrls_1.actPowerDownEnergy      5168349600                       # Energy for active power-down per rank (pJ)
system.mem_ctrls_1.prePowerDownEnergy        99386880                       # Energy for precharge power-down per rank (pJ)
system.mem_ctrls_1.selfRefreshEnergy                0                       # Energy for self refresh per rank (pJ)
system.mem_ctrls_1.totalEnergy             9388836405                       # Total energy per rank (pJ)
system.mem_ctrls_1.averagePower            614.961995                       # Core power per rank (mW)
system.mem_ctrls_1.totalIdleTime          11591673625                       # Total Idle time Per DRAM Rank
system.mem_ctrls_1.memoryStateTime::IDLE      9601000                       # Time in different power states
system.mem_ctrls_1.memoryStateTime::REF     509860000                       # Time in different power states
system.mem_ctrls_1.memoryStateTime::SREF            0                       # Time in different power states
system.mem_ctrls_1.memoryStateTime::PRE_PDN    258471500                       # Time in different power states
system.mem_ctrls_1.memoryStateTime::ACT    3156209500                       # Time in different power states
system.mem_ctrls_1.memoryStateTime::ACT_PDN  11333202125                       # Time in different power states
system.pwrStateResidencyTicks::UNDEFINED  15267344125                       # Cumulative time (in ticks) in various power states
system.cpu0.branchPred.lookups                1383517                       # Number of BP lookups
system.cpu0.branchPred.condPredicted          1383517                       # Number of conditional branches predicted
system.cpu0.branchPred.condIncorrect            57366                       # Number of conditional branches incorrect
system.cpu0.branchPred.BTBLookups             1000923                       # Number of BTB lookups
system.cpu0.branchPred.BTBHits                      0                       # Number of BTB hits
system.cpu0.branchPred.BTBCorrect                   0                       # Number of correct BTB predictions (this stat may not work properly.
system.cpu0.branchPred.BTBHitPct             0.000000                       # BTB Hit Percentage
system.cpu0.branchPred.usedRAS                  41243                       # Number of times the RAS was used to get a target.
system.cpu0.branchPred.RASInCorrect              6842                       # Number of incorrect RAS predictions.
system.cpu0.branchPred.indirectLookups        1000923                       # Number of indirect predictor lookups.
system.cpu0.branchPred.indirectHits            590471                       # Number of indirect target hits.
system.cpu0.branchPred.indirectMisses          410452                       # Number of indirect misses.
system.cpu0.branchPredindirectMispredicted        16284                       # Number of mispredicted indirect branches.
system.cpu_voltage_domain.voltage                   1                       # Voltage in Volts
system.cpu_clk_domain.clock                       500                       # Clock period in ticks
system.cpu0.dtb.walker.pwrStateResidencyTicks::UNDEFINED  15267344125                       # Cumulative time (in ticks) in various power states
system.cpu0.dtb.rdAccesses                     664651                       # TLB accesses on read requests
system.cpu0.dtb.wrAccesses                      46533                       # TLB accesses on write requests
system.cpu0.dtb.rdMisses                       137825                       # TLB misses on read requests
system.cpu0.dtb.wrMisses                          770                       # TLB misses on write requests
system.cpu0.apic_clk_domain.clock                8000                       # Clock period in ticks
system.cpu0.interrupts.pwrStateResidencyTicks::UNDEFINED  15267344125                       # Cumulative time (in ticks) in various power states
system.cpu0.itb.walker.pwrStateResidencyTicks::UNDEFINED  15267344125                       # Cumulative time (in ticks) in various power states
system.cpu0.itb.rdAccesses                          0                       # TLB accesses on read requests
system.cpu0.itb.wrAccesses                    1154619                       # TLB accesses on write requests
system.cpu0.itb.rdMisses                            0                       # TLB misses on read requests
system.cpu0.itb.wrMisses                         5037                       # TLB misses on write requests
system.cpu0.workload.numSyscalls                    0                       # Number of system calls
system.cpu0.pwrStateResidencyTicks::ON    15267344125                       # Cumulative time (in ticks) in various power states
system.cpu0.numCycles                        30534688                       # number of cpu cycles simulated
system.cpu0.numWorkItemsStarted                     0                       # number of work items this cpu started
system.cpu0.numWorkItemsCompleted                   0                       # number of work items this cpu completed
system.cpu0.fetch.icacheStallCycles           1179426                       # Number of cycles fetch is stalled on an Icache miss
system.cpu0.fetch.Insts                       4055452                       # Number of instructions fetch has processed
system.cpu0.fetch.Branches                    1383517                       # Number of branches that fetch encountered
system.cpu0.fetch.predictedBranches            631714                       # Number of branches that fetch has predicted taken
system.cpu0.fetch.Cycles                     29169736                       # Number of cycles fetch has run and was not squashing or blocked
system.cpu0.fetch.SquashCycles                 118098                       # Number of cycles fetch has spent squashing
system.cpu0.fetch.TlbCycles                      3377                       # Number of cycles fetch has spent waiting for tlb
system.cpu0.fetch.MiscStallCycles                1188                       # Number of cycles fetch has spent waiting on interrupts, or bad addresses, or out of MSHRs
system.cpu0.fetch.PendingTrapStallCycles        51534                       # Number of stall cycles due to pending traps
system.cpu0.fetch.CacheLines                  1149582                       # Number of cache lines fetched
system.cpu0.fetch.IcacheSquashes                 5664                       # Number of outstanding Icache misses that were squashed
system.cpu0.fetch.ItlbSquashes                     11                       # Number of outstanding ITLB misses that were squashed
system.cpu0.fetch.rateDist::samples          30464310                       # Number of instructions fetched each cycle (Total)
system.cpu0.fetch.rateDist::mean             0.268017                       # Number of instructions fetched each cycle (Total)
system.cpu0.fetch.rateDist::stdev            1.306466                       # Number of instructions fetched each cycle (Total)
system.cpu0.fetch.rateDist::underflows              0      0.00%      0.00% # Number of instructions fetched each cycle (Total)
system.cpu0.fetch.rateDist::0                28885468     94.82%     94.82% # Number of instructions fetched each cycle (Total)
system.cpu0.fetch.rateDist::1                   14517      0.05%     94.87% # Number of instructions fetched each cycle (Total)
system.cpu0.fetch.rateDist::2                  572181      1.88%     96.74% # Number of instructions fetched each cycle (Total)
system.cpu0.fetch.rateDist::3                   23523      0.08%     96.82% # Number of instructions fetched each cycle (Total)
system.cpu0.fetch.rateDist::4                  113262      0.37%     97.19% # Number of instructions fetched each cycle (Total)
system.cpu0.fetch.rateDist::5                   61271      0.20%     97.39% # Number of instructions fetched each cycle (Total)
system.cpu0.fetch.rateDist::6                   77435      0.25%     97.65% # Number of instructions fetched each cycle (Total)
system.cpu0.fetch.rateDist::7                   21728      0.07%     97.72% # Number of instructions fetched each cycle (Total)
system.cpu0.fetch.rateDist::8                  694925      2.28%    100.00% # Number of instructions fetched each cycle (Total)
system.cpu0.fetch.rateDist::overflows               0      0.00%    100.00% # Number of instructions fetched each cycle (Total)
system.cpu0.fetch.rateDist::min_value               0                       # Number of instructions fetched each cycle (Total)
system.cpu0.fetch.rateDist::max_value               8                       # Number of instructions fetched each cycle (Total)
system.cpu0.fetch.rateDist::total            30464310                       # Number of instructions fetched each cycle (Total)
system.cpu0.fetch.branchRate                 0.045310                       # Number of branch fetches per cycle
system.cpu0.fetch.rate                       0.132815                       # Number of inst fetches per cycle
system.cpu0.decode.IdleCycles                  573319                       # Number of cycles decode is idle
system.cpu0.decode.BlockedCycles             28814398                       # Number of cycles decode is blocked
system.cpu0.decode.RunCycles                   732797                       # Number of cycles decode is running
system.cpu0.decode.UnblockCycles               284747                       # Number of cycles decode is unblocking
system.cpu0.decode.SquashCycles                 59049                       # Number of cycles decode is squashing
system.cpu0.decode.DecodedInsts               6672424                       # Number of instructions handled by decode
system.cpu0.rename.SquashCycles                 59049                       # Number of cycles rename is squashing
system.cpu0.rename.IdleCycles                  656271                       # Number of cycles rename is idle
system.cpu0.rename.BlockCycles               27535508                       # Number of cycles rename is blocking
system.cpu0.rename.serializeStallCycles         10539                       # count of cycles rename stalled for serializing inst
system.cpu0.rename.RunCycles                   861353                       # Number of cycles rename is running
system.cpu0.rename.UnblockCycles              1341590                       # Number of cycles rename is unblocking
system.cpu0.rename.RenamedInsts               6399493                       # Number of instructions processed by rename
system.cpu0.rename.ROBFullEvents                92170                       # Number of times rename has blocked due to ROB full
system.cpu0.rename.IQFullEvents                984187                       # Number of times rename has blocked due to IQ full
system.cpu0.rename.LQFullEvents                331398                       # Number of times rename has blocked due to LQ full
system.cpu0.rename.SQFullEvents                   776                       # Number of times rename has blocked due to SQ full
system.cpu0.rename.RenamedOperands            7644176                       # Number of destination operands rename has renamed
system.cpu0.rename.RenameLookups             17809348                       # Number of register rename lookups that rename has made
system.cpu0.rename.int_rename_lookups         8413132                       # Number of integer rename lookups
system.cpu0.rename.fp_rename_lookups            36988                       # Number of floating rename lookups
system.cpu0.rename.CommittedMaps              2810387                       # Number of HB maps that are committed
system.cpu0.rename.UndoneMaps                 4833789                       # Number of HB maps that are undone due to squashing
system.cpu0.rename.serializingInsts               299                       # count of serializing insts renamed
system.cpu0.rename.tempSerializingInsts           340                       # count of temporary serializing insts renamed
system.cpu0.rename.skidInsts                  1847485                       # count of insts added to the skid buffer
system.cpu0.memDep0.insertedLoads             1156119                       # Number of loads inserted to the mem dependence unit.
system.cpu0.memDep0.insertedStores              65831                       # Number of stores inserted to the mem dependence unit.
system.cpu0.memDep0.conflictingLoads             4098                       # Number of conflicting loads.
system.cpu0.memDep0.conflictingStores            3788                       # Number of conflicting stores.
system.cpu0.iq.iqInstsAdded                   6098094                       # Number of instructions added to the IQ (excludes non-spec)
system.cpu0.iq.iqNonSpecInstsAdded               3592                       # Number of non-speculative instructions added to the IQ
system.cpu0.iq.iqInstsIssued                  4403482                       # Number of instructions issued
system.cpu0.iq.iqSquashedInstsIssued             5143                       # Number of squashed instructions issued
system.cpu0.iq.iqSquashedInstsExamined        3758601                       # Number of squashed instructions iterated over during squash; mainly for profiling
system.cpu0.iq.iqSquashedOperandsExamined      7785616                       # Number of squashed operands that are examined and possibly removed from graph
system.cpu0.iq.iqSquashedNonSpecRemoved          3592                       # Number of squashed non-spec instructions that were removed
system.cpu0.iq.issued_per_cycle::samples     30464310                       # Number of insts issued each cycle
system.cpu0.iq.issued_per_cycle::mean        0.144546                       # Number of insts issued each cycle
system.cpu0.iq.issued_per_cycle::stdev       0.692058                       # Number of insts issued each cycle
system.cpu0.iq.issued_per_cycle::underflows            0      0.00%      0.00% # Number of insts issued each cycle
system.cpu0.iq.issued_per_cycle::0           28632702     93.99%     93.99% # Number of insts issued each cycle
system.cpu0.iq.issued_per_cycle::1             739380      2.43%     96.41% # Number of insts issued each cycle
system.cpu0.iq.issued_per_cycle::2             391833      1.29%     97.70% # Number of insts issued each cycle
system.cpu0.iq.issued_per_cycle::3             264606      0.87%     98.57% # Number of insts issued each cycle
system.cpu0.iq.issued_per_cycle::4             255187      0.84%     99.41% # Number of insts issued each cycle
system.cpu0.iq.issued_per_cycle::5              75210      0.25%     99.65% # Number of insts issued each cycle
system.cpu0.iq.issued_per_cycle::6              65233      0.21%     99.87% # Number of insts issued each cycle
system.cpu0.iq.issued_per_cycle::7              22850      0.08%     99.94% # Number of insts issued each cycle
system.cpu0.iq.issued_per_cycle::8              17309      0.06%    100.00% # Number of insts issued each cycle
system.cpu0.iq.issued_per_cycle::overflows            0      0.00%    100.00% # Number of insts issued each cycle
system.cpu0.iq.issued_per_cycle::min_value            0                       # Number of insts issued each cycle
system.cpu0.iq.issued_per_cycle::max_value            8                       # Number of insts issued each cycle
system.cpu0.iq.issued_per_cycle::total       30464310                       # Number of insts issued each cycle
system.cpu0.iq.fu_full::No_OpClass                  0      0.00%      0.00% # attempts to use FU when none available
system.cpu0.iq.fu_full::IntAlu                   9950     66.68%     66.68% # attempts to use FU when none available
system.cpu0.iq.fu_full::IntMult                     0      0.00%     66.68% # attempts to use FU when none available
system.cpu0.iq.fu_full::IntDiv                      0      0.00%     66.68% # attempts to use FU when none available
system.cpu0.iq.fu_full::FloatAdd                 1009      6.76%     73.44% # attempts to use FU when none available
system.cpu0.iq.fu_full::FloatCmp                    0      0.00%     73.44% # attempts to use FU when none available
system.cpu0.iq.fu_full::FloatCvt                    0      0.00%     73.44% # attempts to use FU when none available
system.cpu0.iq.fu_full::FloatMult                   0      0.00%     73.44% # attempts to use FU when none available
system.cpu0.iq.fu_full::FloatMultAcc                0      0.00%     73.44% # attempts to use FU when none available
system.cpu0.iq.fu_full::FloatDiv                    0      0.00%     73.44% # attempts to use FU when none available
system.cpu0.iq.fu_full::FloatMisc                   0      0.00%     73.44% # attempts to use FU when none available
system.cpu0.iq.fu_full::FloatSqrt                   0      0.00%     73.44% # attempts to use FU when none available
system.cpu0.iq.fu_full::SimdAdd                     0      0.00%     73.44% # attempts to use FU when none available
system.cpu0.iq.fu_full::SimdAddAcc                  0      0.00%     73.44% # attempts to use FU when none available
system.cpu0.iq.fu_full::SimdAlu                     0      0.00%     73.44% # attempts to use FU when none available
system.cpu0.iq.fu_full::SimdCmp                     0      0.00%     73.44% # attempts to use FU when none available
system.cpu0.iq.fu_full::SimdCvt                     0      0.00%     73.44% # attempts to use FU when none available
system.cpu0.iq.fu_full::SimdMisc                    0      0.00%     73.44% # attempts to use FU when none available
system.cpu0.iq.fu_full::SimdMult                    0      0.00%     73.44% # attempts to use FU when none available
system.cpu0.iq.fu_full::SimdMultAcc                 0      0.00%     73.44% # attempts to use FU when none available
system.cpu0.iq.fu_full::SimdShift                   0      0.00%     73.44% # attempts to use FU when none available
system.cpu0.iq.fu_full::SimdShiftAcc                0      0.00%     73.44% # attempts to use FU when none available
system.cpu0.iq.fu_full::SimdSqrt                    0      0.00%     73.44% # attempts to use FU when none available
system.cpu0.iq.fu_full::SimdFloatAdd                0      0.00%     73.44% # attempts to use FU when none available
system.cpu0.iq.fu_full::SimdFloatAlu                0      0.00%     73.44% # attempts to use FU when none available
system.cpu0.iq.fu_full::SimdFloatCmp                0      0.00%     73.44% # attempts to use FU when none available
system.cpu0.iq.fu_full::SimdFloatCvt                0      0.00%     73.44% # attempts to use FU when none available
system.cpu0.iq.fu_full::SimdFloatDiv                0      0.00%     73.44% # attempts to use FU when none available
system.cpu0.iq.fu_full::SimdFloatMisc               0      0.00%     73.44% # attempts to use FU when none available
system.cpu0.iq.fu_full::SimdFloatMult               0      0.00%     73.44% # attempts to use FU when none available
system.cpu0.iq.fu_full::SimdFloatMultAcc            0      0.00%     73.44% # attempts to use FU when none available
system.cpu0.iq.fu_full::SimdFloatSqrt               0      0.00%     73.44% # attempts to use FU when none available
system.cpu0.iq.fu_full::MemRead                  3527     23.63%     97.07% # attempts to use FU when none available
system.cpu0.iq.fu_full::MemWrite                  239      1.60%     98.67% # attempts to use FU when none available
system.cpu0.iq.fu_full::FloatMemRead              158      1.06%     99.73% # attempts to use FU when none available
system.cpu0.iq.fu_full::FloatMemWrite              40      0.27%    100.00% # attempts to use FU when none available
system.cpu0.iq.fu_full::IprAccess                   0      0.00%    100.00% # attempts to use FU when none available
system.cpu0.iq.fu_full::InstPrefetch                0      0.00%    100.00% # attempts to use FU when none available
system.cpu0.iq.FU_type_0::No_OpClass            14826      0.34%      0.34% # Type of FU issued
system.cpu0.iq.FU_type_0::IntAlu              3623232     82.28%     82.62% # Type of FU issued
system.cpu0.iq.FU_type_0::IntMult                 824      0.02%     82.64% # Type of FU issued
system.cpu0.iq.FU_type_0::IntDiv                 9429      0.21%     82.85% # Type of FU issued
system.cpu0.iq.FU_type_0::FloatAdd              13130      0.30%     83.15% # Type of FU issued
system.cpu0.iq.FU_type_0::FloatCmp                  0      0.00%     83.15% # Type of FU issued
system.cpu0.iq.FU_type_0::FloatCvt                  0      0.00%     83.15% # Type of FU issued
system.cpu0.iq.FU_type_0::FloatMult                 0      0.00%     83.15% # Type of FU issued
system.cpu0.iq.FU_type_0::FloatMultAcc              0      0.00%     83.15% # Type of FU issued
system.cpu0.iq.FU_type_0::FloatDiv                  0      0.00%     83.15% # Type of FU issued
system.cpu0.iq.FU_type_0::FloatMisc                 0      0.00%     83.15% # Type of FU issued
system.cpu0.iq.FU_type_0::FloatSqrt                 0      0.00%     83.15% # Type of FU issued
system.cpu0.iq.FU_type_0::SimdAdd                   0      0.00%     83.15% # Type of FU issued
system.cpu0.iq.FU_type_0::SimdAddAcc                0      0.00%     83.15% # Type of FU issued
system.cpu0.iq.FU_type_0::SimdAlu                   0      0.00%     83.15% # Type of FU issued
system.cpu0.iq.FU_type_0::SimdCmp                   0      0.00%     83.15% # Type of FU issued
system.cpu0.iq.FU_type_0::SimdCvt                   0      0.00%     83.15% # Type of FU issued
system.cpu0.iq.FU_type_0::SimdMisc                  0      0.00%     83.15% # Type of FU issued
system.cpu0.iq.FU_type_0::SimdMult                  0      0.00%     83.15% # Type of FU issued
system.cpu0.iq.FU_type_0::SimdMultAcc               0      0.00%     83.15% # Type of FU issued
system.cpu0.iq.FU_type_0::SimdShift                 0      0.00%     83.15% # Type of FU issued
system.cpu0.iq.FU_type_0::SimdShiftAcc              0      0.00%     83.15% # Type of FU issued
system.cpu0.iq.FU_type_0::SimdSqrt                  0      0.00%     83.15% # Type of FU issued
system.cpu0.iq.FU_type_0::SimdFloatAdd              0      0.00%     83.15% # Type of FU issued
system.cpu0.iq.FU_type_0::SimdFloatAlu              0      0.00%     83.15% # Type of FU issued
system.cpu0.iq.FU_type_0::SimdFloatCmp              0      0.00%     83.15% # Type of FU issued
system.cpu0.iq.FU_type_0::SimdFloatCvt              0      0.00%     83.15% # Type of FU issued
system.cpu0.iq.FU_type_0::SimdFloatDiv              0      0.00%     83.15% # Type of FU issued
system.cpu0.iq.FU_type_0::SimdFloatMisc             0      0.00%     83.15% # Type of FU issued
system.cpu0.iq.FU_type_0::SimdFloatMult             0      0.00%     83.15% # Type of FU issued
system.cpu0.iq.FU_type_0::SimdFloatMultAcc            0      0.00%     83.15% # Type of FU issued
system.cpu0.iq.FU_type_0::SimdFloatSqrt             0      0.00%     83.15% # Type of FU issued
system.cpu0.iq.FU_type_0::MemRead              689363     15.65%     98.80% # Type of FU issued
system.cpu0.iq.FU_type_0::MemWrite              49719      1.13%     99.93% # Type of FU issued
system.cpu0.iq.FU_type_0::FloatMemRead           2838      0.06%    100.00% # Type of FU issued
system.cpu0.iq.FU_type_0::FloatMemWrite           121      0.00%    100.00% # Type of FU issued
system.cpu0.iq.FU_type_0::IprAccess                 0      0.00%    100.00% # Type of FU issued
system.cpu0.iq.FU_type_0::InstPrefetch              0      0.00%    100.00% # Type of FU issued
system.cpu0.iq.FU_type_0::total               4403482                       # Type of FU issued
system.cpu0.iq.rate                          0.144212                       # Inst issue rate
system.cpu0.iq.fu_busy_cnt                      14923                       # FU busy when requested
system.cpu0.iq.fu_busy_rate                  0.003389                       # FU busy rate (busy events/executed inst)
system.cpu0.iq.int_inst_queue_reads          39257663                       # Number of integer instruction queue reads
system.cpu0.iq.int_inst_queue_writes          9828604                       # Number of integer instruction queue writes
system.cpu0.iq.int_inst_queue_wakeup_accesses      4231538                       # Number of integer instruction queue wakeup accesses
system.cpu0.iq.fp_inst_queue_reads              33677                       # Number of floating instruction queue reads
system.cpu0.iq.fp_inst_queue_writes             31688                       # Number of floating instruction queue writes
system.cpu0.iq.fp_inst_queue_wakeup_accesses        14466                       # Number of floating instruction queue wakeup accesses
system.cpu0.iq.vec_inst_queue_reads                 0                       # Number of vector instruction queue reads
system.cpu0.iq.vec_inst_queue_writes                0                       # Number of vector instruction queue writes
system.cpu0.iq.vec_inst_queue_wakeup_accesses            0                       # Number of vector instruction queue wakeup accesses
system.cpu0.iq.int_alu_accesses               4386269                       # Number of integer alu accesses
system.cpu0.iq.fp_alu_accesses                  17310                       # Number of floating point alu accesses
system.cpu0.iq.vec_alu_accesses                     0                       # Number of vector alu accesses
system.cpu0.iew.lsq.thread0.forwLoads            4604                       # Number of loads that had data forwarded from stores
system.cpu0.iew.lsq.thread0.invAddrLoads            0                       # Number of loads ignored due to an invalid address
system.cpu0.iew.lsq.thread0.squashedLoads       718344                       # Number of loads squashed
system.cpu0.iew.lsq.thread0.ignoredResponses          128                       # Number of memory responses ignored because the instruction is squashed
system.cpu0.iew.lsq.thread0.memOrderViolation            8                       # Number of memory ordering violations
system.cpu0.iew.lsq.thread0.squashedStores        38196                       # Number of stores squashed
system.cpu0.iew.lsq.thread0.invAddrSwpfs            0                       # Number of software prefetches ignored due to an invalid address
system.cpu0.iew.lsq.thread0.blockedLoads            0                       # Number of blocked loads due to partial load-store forwarding
system.cpu0.iew.lsq.thread0.rescheduledLoads           47                       # Number of loads that were rescheduled
system.cpu0.iew.lsq.thread0.cacheBlocked         1198                       # Number of times an access to memory failed due to the cache being blocked
system.cpu0.iew.iewIdleCycles                       0                       # Number of cycles IEW is idle
system.cpu0.iew.iewSquashCycles                 59049                       # Number of cycles IEW is squashing
system.cpu0.iew.iewBlockCycles               25623381                       # Number of cycles IEW is blocking
system.cpu0.iew.iewUnblockCycles               269727                       # Number of cycles IEW is unblocking
system.cpu0.iew.iewDispatchedInsts            6101686                       # Number of instructions dispatched to IQ
system.cpu0.iew.iewDispSquashedInsts             3982                       # Number of squashed instructions skipped by dispatch
system.cpu0.iew.iewDispLoadInsts              1156119                       # Number of dispatched load instructions
system.cpu0.iew.iewDispStoreInsts               65831                       # Number of dispatched store instructions
system.cpu0.iew.iewDispNonSpecInsts              1372                       # Number of dispatched non-speculative instructions
system.cpu0.iew.iewIQFullEvents                 14285                       # Number of times the IQ has become full, causing a stall
system.cpu0.iew.iewLSQFullEvents                75086                       # Number of times the LSQ has become full, causing a stall
system.cpu0.iew.memOrderViolationEvents             8                       # Number of memory order violations
system.cpu0.iew.predictedTakenIncorrect         33161                       # Number of branches that were predicted taken incorrectly
system.cpu0.iew.predictedNotTakenIncorrect        31702                       # Number of branches that were predicted not taken incorrectly
system.cpu0.iew.branchMispredicts               64863                       # Number of branch mispredicts detected at execute
system.cpu0.iew.iewExecutedInsts              4332214                       # Number of executed instructions
system.cpu0.iew.iewExecLoadInsts               664381                       # Number of load instructions executed
system.cpu0.iew.iewExecSquashedInsts            71268                       # Number of squashed instructions skipped in execute
system.cpu0.iew.exec_swp                            0                       # number of swp insts executed
system.cpu0.iew.exec_nop                            0                       # number of nop insts executed
system.cpu0.iew.exec_refs                      710901                       # number of memory reference insts executed
system.cpu0.iew.exec_branches                  523347                       # Number of branches executed
system.cpu0.iew.exec_stores                     46520                       # Number of stores executed
system.cpu0.iew.exec_rate                    0.141878                       # Inst execution rate
system.cpu0.iew.wb_sent                       4259942                       # cumulative count of insts sent to commit
system.cpu0.iew.wb_count                      4246004                       # cumulative count of insts written-back
system.cpu0.iew.wb_producers                  3095336                       # num instructions producing a value
system.cpu0.iew.wb_consumers                  4952473                       # num instructions consuming a value
system.cpu0.iew.wb_rate                      0.139055                       # insts written-back per cycle
system.cpu0.iew.wb_fanout                    0.625008                       # average fanout of values written-back
system.cpu0.commit.commitSquashedInsts        3759279                       # The number of squashed insts skipped by commit
system.cpu0.commit.branchMispredicts            59045                       # The number of times a branch was mispredicted
system.cpu0.commit.committed_per_cycle::samples     29931745                       # Number of insts commited each cycle
system.cpu0.commit.committed_per_cycle::mean     0.078281                       # Number of insts commited each cycle
system.cpu0.commit.committed_per_cycle::stdev     0.514847                       # Number of insts commited each cycle
system.cpu0.commit.committed_per_cycle::underflows            0      0.00%      0.00% # Number of insts commited each cycle
system.cpu0.commit.committed_per_cycle::0     28909712     96.59%     96.59% # Number of insts commited each cycle
system.cpu0.commit.committed_per_cycle::1       471386      1.57%     98.16% # Number of insts commited each cycle
system.cpu0.commit.committed_per_cycle::2       115194      0.38%     98.55% # Number of insts commited each cycle
system.cpu0.commit.committed_per_cycle::3       307241      1.03%     99.57% # Number of insts commited each cycle
system.cpu0.commit.committed_per_cycle::4        52775      0.18%     99.75% # Number of insts commited each cycle
system.cpu0.commit.committed_per_cycle::5        27238      0.09%     99.84% # Number of insts commited each cycle
system.cpu0.commit.committed_per_cycle::6         4674      0.02%     99.85% # Number of insts commited each cycle
system.cpu0.commit.committed_per_cycle::7         3946      0.01%     99.87% # Number of insts commited each cycle
system.cpu0.commit.committed_per_cycle::8        39579      0.13%    100.00% # Number of insts commited each cycle
system.cpu0.commit.committed_per_cycle::overflows            0      0.00%    100.00% # Number of insts commited each cycle
system.cpu0.commit.committed_per_cycle::min_value            0                       # Number of insts commited each cycle
system.cpu0.commit.committed_per_cycle::max_value            8                       # Number of insts commited each cycle
system.cpu0.commit.committed_per_cycle::total     29931745                       # Number of insts commited each cycle
system.cpu0.commit.committedInsts             1173379                       # Number of instructions committed
system.cpu0.commit.committedOps               2343085                       # Number of ops (including micro ops) committed
system.cpu0.commit.swp_count                        0                       # Number of s/w prefetches committed
system.cpu0.commit.refs                        465410                       # Number of memory references committed
system.cpu0.commit.loads                       437775                       # Number of loads committed
system.cpu0.commit.membars                          0                       # Number of memory barriers committed
system.cpu0.commit.branches                    416975                       # Number of branches committed
system.cpu0.commit.vec_insts                        0                       # Number of committed Vector instructions.
system.cpu0.commit.fp_insts                     11064                       # Number of committed floating point instructions.
system.cpu0.commit.int_insts                  2331925                       # Number of committed integer instructions.
system.cpu0.commit.function_calls                4875                       # Number of function calls committed.
system.cpu0.commit.op_class_0::No_OpClass         3312      0.14%      0.14% # Class of committed instruction
system.cpu0.commit.op_class_0::IntAlu         1856729     79.24%     79.38% # Class of committed instruction
system.cpu0.commit.op_class_0::IntMult            195      0.01%     79.39% # Class of committed instruction
system.cpu0.commit.op_class_0::IntDiv            7983      0.34%     79.73% # Class of committed instruction
system.cpu0.commit.op_class_0::FloatAdd          9456      0.40%     80.14% # Class of committed instruction
system.cpu0.commit.op_class_0::FloatCmp             0      0.00%     80.14% # Class of committed instruction
system.cpu0.commit.op_class_0::FloatCvt             0      0.00%     80.14% # Class of committed instruction
system.cpu0.commit.op_class_0::FloatMult            0      0.00%     80.14% # Class of committed instruction
system.cpu0.commit.op_class_0::FloatMultAcc            0      0.00%     80.14% # Class of committed instruction
system.cpu0.commit.op_class_0::FloatDiv             0      0.00%     80.14% # Class of committed instruction
system.cpu0.commit.op_class_0::FloatMisc            0      0.00%     80.14% # Class of committed instruction
system.cpu0.commit.op_class_0::FloatSqrt            0      0.00%     80.14% # Class of committed instruction
system.cpu0.commit.op_class_0::SimdAdd              0      0.00%     80.14% # Class of committed instruction
system.cpu0.commit.op_class_0::SimdAddAcc            0      0.00%     80.14% # Class of committed instruction
system.cpu0.commit.op_class_0::SimdAlu              0      0.00%     80.14% # Class of committed instruction
system.cpu0.commit.op_class_0::SimdCmp              0      0.00%     80.14% # Class of committed instruction
system.cpu0.commit.op_class_0::SimdCvt              0      0.00%     80.14% # Class of committed instruction
system.cpu0.commit.op_class_0::SimdMisc             0      0.00%     80.14% # Class of committed instruction
system.cpu0.commit.op_class_0::SimdMult             0      0.00%     80.14% # Class of committed instruction
system.cpu0.commit.op_class_0::SimdMultAcc            0      0.00%     80.14% # Class of committed instruction
system.cpu0.commit.op_class_0::SimdShift            0      0.00%     80.14% # Class of committed instruction
system.cpu0.commit.op_class_0::SimdShiftAcc            0      0.00%     80.14% # Class of committed instruction
system.cpu0.commit.op_class_0::SimdSqrt             0      0.00%     80.14% # Class of committed instruction
system.cpu0.commit.op_class_0::SimdFloatAdd            0      0.00%     80.14% # Class of committed instruction
system.cpu0.commit.op_class_0::SimdFloatAlu            0      0.00%     80.14% # Class of committed instruction
system.cpu0.commit.op_class_0::SimdFloatCmp            0      0.00%     80.14% # Class of committed instruction
system.cpu0.commit.op_class_0::SimdFloatCvt            0      0.00%     80.14% # Class of committed instruction
system.cpu0.commit.op_class_0::SimdFloatDiv            0      0.00%     80.14% # Class of committed instruction
system.cpu0.commit.op_class_0::SimdFloatMisc            0      0.00%     80.14% # Class of committed instruction
system.cpu0.commit.op_class_0::SimdFloatMult            0      0.00%     80.14% # Class of committed instruction
system.cpu0.commit.op_class_0::SimdFloatMultAcc            0      0.00%     80.14% # Class of committed instruction
system.cpu0.commit.op_class_0::SimdFloatSqrt            0      0.00%     80.14% # Class of committed instruction
system.cpu0.commit.op_class_0::MemRead         436167     18.62%     98.75% # Class of committed instruction
system.cpu0.commit.op_class_0::MemWrite         27635      1.18%     99.93% # Class of committed instruction
system.cpu0.commit.op_class_0::FloatMemRead         1608      0.07%    100.00% # Class of committed instruction
system.cpu0.commit.op_class_0::FloatMemWrite            0      0.00%    100.00% # Class of committed instruction
system.cpu0.commit.op_class_0::IprAccess            0      0.00%    100.00% # Class of committed instruction
system.cpu0.commit.op_class_0::InstPrefetch            0      0.00%    100.00% # Class of committed instruction
system.cpu0.commit.op_class_0::total          2343085                       # Class of committed instruction
system.cpu0.commit.bw_lim_events                39579                       # number cycles where commit BW limit reached
system.cpu0.rob.rob_reads                    35994530                       # The number of ROB reads
system.cpu0.rob.rob_writes                   12738563                       # The number of ROB writes
system.cpu0.timesIdled                            526                       # Number of times that the entire CPU went into an idle state and unscheduled itself
system.cpu0.idleCycles                          70378                       # Total number of cycles that the CPU has spent unscheduled due to idling
system.cpu0.committedInsts                    1173379                       # Number of Instructions Simulated
system.cpu0.committedOps                      2343085                       # Number of Ops (including micro ops) Simulated
system.cpu0.cpi                             26.022869                       # CPI: Cycles Per Instruction
system.cpu0.cpi_total                       26.022869                       # CPI: Total CPI of All Threads
system.cpu0.ipc                              0.038428                       # IPC: Instructions Per Cycle
system.cpu0.ipc_total                        0.038428                       # IPC: Total IPC of All Threads
system.cpu0.int_regfile_reads                 4402535                       # number of integer regfile reads
system.cpu0.int_regfile_writes                3682112                       # number of integer regfile writes
system.cpu0.fp_regfile_reads                    25610                       # number of floating regfile reads
system.cpu0.fp_regfile_writes                   12772                       # number of floating regfile writes
system.cpu0.cc_regfile_reads                  2773712                       # number of cc regfile reads
system.cpu0.cc_regfile_writes                 1193818                       # number of cc regfile writes
system.cpu0.misc_regfile_reads                2270542                       # number of misc regfile reads
system.cpu0.dcache.tags.pwrStateResidencyTicks::UNDEFINED  15267344125                       # Cumulative time (in ticks) in various power states
system.cpu0.dcache.tags.replacements           226051                       # number of replacements
system.cpu0.dcache.tags.tagsinuse                1024                       # Cycle average of tags in use
system.cpu0.dcache.tags.total_refs             282279                       # Total number of references to valid blocks.
system.cpu0.dcache.tags.sampled_refs           226051                       # Sample count of references to valid blocks.
system.cpu0.dcache.tags.avg_refs             1.248740                       # Average number of references to valid blocks.
system.cpu0.dcache.tags.warmup_cycle                0                       # Cycle when the warmup percentage was hit.
system.cpu0.dcache.tags.occ_blocks::cpu0.data         1024                       # Average occupied blocks per requestor
system.cpu0.dcache.tags.occ_percent::cpu0.data            1                       # Average percentage of cache occupancy
system.cpu0.dcache.tags.occ_percent::total            1                       # Average percentage of cache occupancy
system.cpu0.dcache.tags.occ_task_id_blocks::1024         1024                       # Occupied blocks per task id
system.cpu0.dcache.tags.age_task_id_blocks_1024::0          121                       # Occupied blocks per task id
system.cpu0.dcache.tags.age_task_id_blocks_1024::1          797                       # Occupied blocks per task id
system.cpu0.dcache.tags.age_task_id_blocks_1024::2          106                       # Occupied blocks per task id
system.cpu0.dcache.tags.occ_task_id_percent::1024            1                       # Percentage of cache occupancy per task id
system.cpu0.dcache.tags.tag_accesses          2960747                       # Number of tag accesses
system.cpu0.dcache.tags.data_accesses         2960747                       # Number of data accesses
system.cpu0.dcache.pwrStateResidencyTicks::UNDEFINED  15267344125                       # Cumulative time (in ticks) in various power states
system.cpu0.dcache.ReadReq_hits::cpu0.data       254946                       # number of ReadReq hits
system.cpu0.dcache.ReadReq_hits::total         254946                       # number of ReadReq hits
system.cpu0.dcache.WriteReq_hits::cpu0.data        26714                       # number of WriteReq hits
system.cpu0.dcache.WriteReq_hits::total         26714                       # number of WriteReq hits
system.cpu0.dcache.demand_hits::cpu0.data       281660                       # number of demand (read+write) hits
system.cpu0.dcache.demand_hits::total          281660                       # number of demand (read+write) hits
system.cpu0.dcache.overall_hits::cpu0.data       281660                       # number of overall hits
system.cpu0.dcache.overall_hits::total         281660                       # number of overall hits
system.cpu0.dcache.ReadReq_misses::cpu0.data       401093                       # number of ReadReq misses
system.cpu0.dcache.ReadReq_misses::total       401093                       # number of ReadReq misses
system.cpu0.dcache.WriteReq_misses::cpu0.data          921                       # number of WriteReq misses
system.cpu0.dcache.WriteReq_misses::total          921                       # number of WriteReq misses
system.cpu0.dcache.demand_misses::cpu0.data       402014                       # number of demand (read+write) misses
system.cpu0.dcache.demand_misses::total        402014                       # number of demand (read+write) misses
system.cpu0.dcache.overall_misses::cpu0.data       402014                       # number of overall misses
system.cpu0.dcache.overall_misses::total       402014                       # number of overall misses
system.cpu0.dcache.ReadReq_miss_latency::cpu0.data  34492409000                       # number of ReadReq miss cycles
system.cpu0.dcache.ReadReq_miss_latency::total  34492409000                       # number of ReadReq miss cycles
system.cpu0.dcache.WriteReq_miss_latency::cpu0.data     37517500                       # number of WriteReq miss cycles
system.cpu0.dcache.WriteReq_miss_latency::total     37517500                       # number of WriteReq miss cycles
system.cpu0.dcache.demand_miss_latency::cpu0.data  34529926500                       # number of demand (read+write) miss cycles
system.cpu0.dcache.demand_miss_latency::total  34529926500                       # number of demand (read+write) miss cycles
system.cpu0.dcache.overall_miss_latency::cpu0.data  34529926500                       # number of overall miss cycles
system.cpu0.dcache.overall_miss_latency::total  34529926500                       # number of overall miss cycles
system.cpu0.dcache.ReadReq_accesses::cpu0.data       656039                       # number of ReadReq accesses(hits+misses)
system.cpu0.dcache.ReadReq_accesses::total       656039                       # number of ReadReq accesses(hits+misses)
system.cpu0.dcache.WriteReq_accesses::cpu0.data        27635                       # number of WriteReq accesses(hits+misses)
system.cpu0.dcache.WriteReq_accesses::total        27635                       # number of WriteReq accesses(hits+misses)
system.cpu0.dcache.demand_accesses::cpu0.data       683674                       # number of demand (read+write) accesses
system.cpu0.dcache.demand_accesses::total       683674                       # number of demand (read+write) accesses
system.cpu0.dcache.overall_accesses::cpu0.data       683674                       # number of overall (read+write) accesses
system.cpu0.dcache.overall_accesses::total       683674                       # number of overall (read+write) accesses
system.cpu0.dcache.ReadReq_miss_rate::cpu0.data     0.611386                       # miss rate for ReadReq accesses
[...]
system.l2.overall_accesses::cpu0.inst               1                       # number of overall (read+write) accesses
system.l2.overall_accesses::cpu0.data          226052                       # number of overall (read+write) accesses
system.l2.overall_accesses::total              226053                       # number of overall (read+write) accesses
system.l2.ReadExReq_miss_rate::cpu0.data     0.290850                       # miss rate for ReadExReq accesses
system.l2.ReadExReq_miss_rate::total         0.290850                       # miss rate for ReadExReq accesses
system.l2.ReadCleanReq_miss_rate::cpu0.inst            1                       # miss rate for ReadCleanReq accesses
system.l2.ReadCleanReq_miss_rate::total             1                       # miss rate for ReadCleanReq accesses
system.l2.ReadSharedReq_miss_rate::cpu0.data     0.870864                       # miss rate for ReadSharedReq accesses
system.l2.ReadSharedReq_miss_rate::total     0.870864                       # miss rate for ReadSharedReq accesses
system.l2.demand_miss_rate::cpu0.inst               1                       # miss rate for demand accesses
system.l2.demand_miss_rate::cpu0.data        0.868508                       # miss rate for demand accesses
system.l2.demand_miss_rate::total            0.868509                       # miss rate for demand accesses
system.l2.overall_miss_rate::cpu0.inst              1                       # miss rate for overall accesses
system.l2.overall_miss_rate::cpu0.data       0.868508                       # miss rate for overall accesses
system.l2.overall_miss_rate::total           0.868509                       # miss rate for overall accesses
system.l2.ReadExReq_avg_miss_latency::cpu0.data 104028.089888                       # average ReadExReq miss latency
system.l2.ReadExReq_avg_miss_latency::total 104028.089888                       # average ReadExReq miss latency
system.l2.ReadCleanReq_avg_miss_latency::cpu0.inst       103500                       # average ReadCleanReq miss latency
system.l2.ReadCleanReq_avg_miss_latency::total       103500                       # average ReadCleanReq miss latency
system.l2.ReadSharedReq_avg_miss_latency::cpu0.data 94944.785041                       # average ReadSharedReq miss latency
system.l2.ReadSharedReq_avg_miss_latency::total 94944.785041                       # average ReadSharedReq miss latency
system.l2.demand_avg_miss_latency::cpu0.inst       103500                       # average overall miss latency
system.l2.demand_avg_miss_latency::cpu0.data 94957.138055                       # average overall miss latency
system.l2.demand_avg_miss_latency::total 94957.181568                       # average overall miss latency
system.l2.overall_avg_miss_latency::cpu0.inst       103500                       # average overall miss latency
system.l2.overall_avg_miss_latency::cpu0.data 94957.138055                       # average overall miss latency
system.l2.overall_avg_miss_latency::total 94957.181568                       # average overall miss latency
system.l2.blocked_cycles::no_mshrs                  0                       # number of cycles access was blocked
system.l2.blocked_cycles::no_targets                0                       # number of cycles access was blocked
system.l2.blocked::no_mshrs                         0                       # number of cycles access was blocked
system.l2.blocked::no_targets                       0                       # number of cycles access was blocked
system.l2.avg_blocked_cycles::no_mshrs            nan                       # average number of cycles each access was blocked
system.l2.avg_blocked_cycles::no_targets          nan                       # average number of cycles each access was blocked
system.l2.writebacks::writebacks                  433                       # number of writebacks
system.l2.writebacks::total                       433                       # number of writebacks
system.l2.CleanEvict_mshr_misses::writebacks            1                       # number of CleanEvict MSHR misses
system.l2.CleanEvict_mshr_misses::total             1                       # number of CleanEvict MSHR misses
system.l2.ReadExReq_mshr_misses::cpu0.data          267                       # number of ReadExReq MSHR misses
system.l2.ReadExReq_mshr_misses::total            267                       # number of ReadExReq MSHR misses
system.l2.ReadCleanReq_mshr_misses::cpu0.inst            1                       # number of ReadCleanReq MSHR misses
system.l2.ReadCleanReq_mshr_misses::total            1                       # number of ReadCleanReq MSHR misses
system.l2.ReadSharedReq_mshr_misses::cpu0.data       196061                       # number of ReadSharedReq MSHR misses
system.l2.ReadSharedReq_mshr_misses::total       196061                       # number of ReadSharedReq MSHR misses
system.l2.demand_mshr_misses::cpu0.inst             1                       # number of demand (read+write) MSHR misses
system.l2.demand_mshr_misses::cpu0.data        196328                       # number of demand (read+write) MSHR misses
system.l2.demand_mshr_misses::total            196329                       # number of demand (read+write) MSHR misses
system.l2.overall_mshr_misses::cpu0.inst            1                       # number of overall MSHR misses
system.l2.overall_mshr_misses::cpu0.data       196328                       # number of overall MSHR misses
system.l2.overall_mshr_misses::total           196329                       # number of overall MSHR misses
system.l2.ReadExReq_mshr_miss_latency::cpu0.data     25105500                       # number of ReadExReq MSHR miss cycles
system.l2.ReadExReq_mshr_miss_latency::total     25105500                       # number of ReadExReq MSHR miss cycles
system.l2.ReadCleanReq_mshr_miss_latency::cpu0.inst        93500                       # number of ReadCleanReq MSHR miss cycles
system.l2.ReadCleanReq_mshr_miss_latency::total        93500                       # number of ReadCleanReq MSHR miss cycles
system.l2.ReadSharedReq_mshr_miss_latency::cpu0.data  16654369500                       # number of ReadSharedReq MSHR miss cycles
system.l2.ReadSharedReq_mshr_miss_latency::total  16654369500                       # number of ReadSharedReq MSHR miss cycles
system.l2.demand_mshr_miss_latency::cpu0.inst        93500                       # number of demand (read+write) MSHR miss cycles
system.l2.demand_mshr_miss_latency::cpu0.data  16679475000                       # number of demand (read+write) MSHR miss cycles
system.l2.demand_mshr_miss_latency::total  16679568500                       # number of demand (read+write) MSHR miss cycles
system.l2.overall_mshr_miss_latency::cpu0.inst        93500                       # number of overall MSHR miss cycles
system.l2.overall_mshr_miss_latency::cpu0.data  16679475000                       # number of overall MSHR miss cycles
system.l2.overall_mshr_miss_latency::total  16679568500                       # number of overall MSHR miss cycles
system.l2.CleanEvict_mshr_miss_rate::writebacks          inf                       # mshr miss rate for CleanEvict accesses
system.l2.CleanEvict_mshr_miss_rate::total          inf                       # mshr miss rate for CleanEvict accesses
system.l2.ReadExReq_mshr_miss_rate::cpu0.data     0.290850                       # mshr miss rate for ReadExReq accesses
system.l2.ReadExReq_mshr_miss_rate::total     0.290850                       # mshr miss rate for ReadExReq accesses
system.l2.ReadCleanReq_mshr_miss_rate::cpu0.inst            1                       # mshr miss rate for ReadCleanReq accesses
system.l2.ReadCleanReq_mshr_miss_rate::total            1                       # mshr miss rate for ReadCleanReq accesses
system.l2.ReadSharedReq_mshr_miss_rate::cpu0.data     0.870864                       # mshr miss rate for ReadSharedReq accesses
system.l2.ReadSharedReq_mshr_miss_rate::total     0.870864                       # mshr miss rate for ReadSharedReq accesses
system.l2.demand_mshr_miss_rate::cpu0.inst            1                       # mshr miss rate for demand accesses
system.l2.demand_mshr_miss_rate::cpu0.data     0.868508                       # mshr miss rate for demand accesses
system.l2.demand_mshr_miss_rate::total       0.868509                       # mshr miss rate for demand accesses
system.l2.overall_mshr_miss_rate::cpu0.inst            1                       # mshr miss rate for overall accesses
system.l2.overall_mshr_miss_rate::cpu0.data     0.868508                       # mshr miss rate for overall accesses
system.l2.overall_mshr_miss_rate::total      0.868509                       # mshr miss rate for overall accesses
system.l2.ReadExReq_avg_mshr_miss_latency::cpu0.data 94028.089888                       # average ReadExReq mshr miss latency
system.l2.ReadExReq_avg_mshr_miss_latency::total 94028.089888                       # average ReadExReq mshr miss latency
system.l2.ReadCleanReq_avg_mshr_miss_latency::cpu0.inst        93500                       # average ReadCleanReq mshr miss latency
system.l2.ReadCleanReq_avg_mshr_miss_latency::total        93500                       # average ReadCleanReq mshr miss latency
system.l2.ReadSharedReq_avg_mshr_miss_latency::cpu0.data 84944.836046                       # average ReadSharedReq mshr miss latency
system.l2.ReadSharedReq_avg_mshr_miss_latency::total 84944.836046                       # average ReadSharedReq mshr miss latency
system.l2.demand_avg_mshr_miss_latency::cpu0.inst        93500                       # average overall mshr miss latency
system.l2.demand_avg_mshr_miss_latency::cpu0.data 84957.188990                       # average overall mshr miss latency
system.l2.demand_avg_mshr_miss_latency::total 84957.232503                       # average overall mshr miss latency
system.l2.overall_avg_mshr_miss_latency::cpu0.inst        93500                       # average overall mshr miss latency
system.l2.overall_avg_mshr_miss_latency::cpu0.data 84957.188990                       # average overall mshr miss latency
system.l2.overall_avg_mshr_miss_latency::total 84957.232503                       # average overall mshr miss latency
system.membus.snoop_filter.tot_requests        392649                       # Total number of requests made to the snoop filter.
system.membus.snoop_filter.hit_single_requests       196328                       # Number of requests hitting in the snoop filter with a single holder of the requested data.
system.membus.snoop_filter.hit_multi_requests            0                       # Number of requests hitting in the snoop filter with multiple (>1) holders of the requested data.
system.membus.snoop_filter.tot_snoops               0                       # Total number of snoops made to the snoop filter.
system.membus.snoop_filter.hit_single_snoops            0                       # Number of snoops hitting in the snoop filter with a single holder of the requested data.
system.membus.snoop_filter.hit_multi_snoops            0                       # Number of snoops hitting in the snoop filter with multiple (>1) holders of the requested data.
system.membus.pwrStateResidencyTicks::UNDEFINED  15267344125                       # Cumulative time (in ticks) in various power states
system.membus.trans_dist::ReadResp             196061                       # Transaction distribution
system.membus.trans_dist::WritebackDirty          433                       # Transaction distribution
system.membus.trans_dist::CleanEvict           195888                       # Transaction distribution
system.membus.trans_dist::ReadExReq               267                       # Transaction distribution
system.membus.trans_dist::ReadExResp              267                       # Transaction distribution
system.membus.trans_dist::ReadSharedReq        196061                       # Transaction distribution
system.membus.pkt_count_system.l2.mem_side::system.mem_ctrls.port       588977                       # Packet count per connected master and slave (bytes)
system.membus.pkt_count_system.l2.mem_side::total       588977                       # Packet count per connected master and slave (bytes)
system.membus.pkt_count::total                 588977                       # Packet count per connected master and slave (bytes)
system.membus.pkt_size_system.l2.mem_side::system.mem_ctrls.port     12592704                       # Cumulative packet size per connected master and slave (bytes)
system.membus.pkt_size_system.l2.mem_side::total     12592704                       # Cumulative packet size per connected master and slave (bytes)
system.membus.pkt_size::total                12592704                       # Cumulative packet size per connected master and slave (bytes)
system.membus.snoops                                0                       # Total snoops (count)
system.membus.snoopTraffic                          0                       # Total snoop traffic (bytes)
system.membus.snoop_fanout::samples            196328                       # Request fanout histogram
system.membus.snoop_fanout::mean                    0                       # Request fanout histogram
system.membus.snoop_fanout::stdev                   0                       # Request fanout histogram
system.membus.snoop_fanout::underflows              0      0.00%      0.00% # Request fanout histogram
system.membus.snoop_fanout::0                  196328    100.00%    100.00% # Request fanout histogram
system.membus.snoop_fanout::1                       0      0.00%    100.00% # Request fanout histogram
system.membus.snoop_fanout::overflows               0      0.00%    100.00% # Request fanout histogram
system.membus.snoop_fanout::min_value               0                       # Request fanout histogram
system.membus.snoop_fanout::max_value               0                       # Request fanout histogram
system.membus.snoop_fanout::total              196328                       # Request fanout histogram
system.membus.reqLayer4.occupancy           464207000                       # Layer occupancy (ticks)
system.membus.reqLayer4.utilization               3.0                       # Layer utilization (%)
system.membus.respLayer1.occupancy         1060475250                       # Layer occupancy (ticks)
system.membus.respLayer1.utilization              6.9                       # Layer utilization (%)
system.tol2bus.snoop_filter.tot_requests       452105                       # Total number of requests made to the snoop filter.
system.tol2bus.snoop_filter.hit_single_requests       226052                       # Number of requests hitting in the snoop filter with a single holder of the requested data.
system.tol2bus.snoop_filter.hit_multi_requests          549                       # Number of requests hitting in the snoop filter with multiple (>1) holders of the requested data.
system.tol2bus.snoop_filter.tot_snoops             19                       # Total number of snoops made to the snoop filter.
system.tol2bus.snoop_filter.hit_single_snoops           18                       # Number of snoops hitting in the snoop filter with a single holder of the requested data.
system.tol2bus.snoop_filter.hit_multi_snoops            1                       # Number of snoops hitting in the snoop filter with multiple (>1) holders of the requested data.
system.tol2bus.pwrStateResidencyTicks::UNDEFINED  15267344125                       # Cumulative time (in ticks) in various power states
system.tol2bus.trans_dist::ReadResp            225134                       # Transaction distribution
system.tol2bus.trans_dist::WritebackDirty         2615                       # Transaction distribution
system.tol2bus.trans_dist::WritebackClean            1                       # Transaction distribution
system.tol2bus.trans_dist::CleanEvict          419775                       # Transaction distribution
system.tol2bus.trans_dist::ReadExReq              918                       # Transaction distribution
system.tol2bus.trans_dist::ReadExResp             918                       # Transaction distribution
system.tol2bus.trans_dist::ReadCleanReq             1                       # Transaction distribution
system.tol2bus.trans_dist::ReadSharedReq       225134                       # Transaction distribution
system.tol2bus.pkt_count_system.cpu0.icache.mem_side::system.l2.cpu_side            3                       # Packet count per connected master and slave (bytes)
system.tol2bus.pkt_count_system.cpu0.dcache.mem_side::system.l2.cpu_side       678154                       # Packet count per connected master and slave (bytes)
system.tol2bus.pkt_count::total                678157                       # Packet count per connected master and slave (bytes)
system.tol2bus.pkt_size_system.cpu0.icache.mem_side::system.l2.cpu_side          128                       # Cumulative packet size per connected master and slave (bytes)
system.tol2bus.pkt_size_system.cpu0.dcache.mem_side::system.l2.cpu_side     14606912                       # Cumulative packet size per connected master and slave (bytes)
system.tol2bus.pkt_size::total               14607040                       # Cumulative packet size per connected master and slave (bytes)
system.tol2bus.snoops                          196339                       # Total snoops (count)
system.tol2bus.snoopTraffic                     27712                       # Total snoop traffic (bytes)
system.tol2bus.snoop_fanout::samples           422392                       # Request fanout histogram
system.tol2bus.snoop_fanout::mean            0.001347                       # Request fanout histogram
system.tol2bus.snoop_fanout::stdev           0.036743                       # Request fanout histogram
system.tol2bus.snoop_fanout::underflows             0      0.00%      0.00% # Request fanout histogram
system.tol2bus.snoop_fanout::0                 421824     99.87%     99.87% # Request fanout histogram
system.tol2bus.snoop_fanout::1                    567      0.13%    100.00% # Request fanout histogram
system.tol2bus.snoop_fanout::2                      1      0.00%    100.00% # Request fanout histogram
system.tol2bus.snoop_fanout::3                      0      0.00%    100.00% # Request fanout histogram
system.tol2bus.snoop_fanout::4                      0      0.00%    100.00% # Request fanout histogram
system.tol2bus.snoop_fanout::5                      0      0.00%    100.00% # Request fanout histogram
system.tol2bus.snoop_fanout::6                      0      0.00%    100.00% # Request fanout histogram
system.tol2bus.snoop_fanout::7                      0      0.00%    100.00% # Request fanout histogram
system.tol2bus.snoop_fanout::8                      0      0.00%    100.00% # Request fanout histogram
system.tol2bus.snoop_fanout::overflows              0      0.00%    100.00% # Request fanout histogram
system.tol2bus.snoop_fanout::min_value              0                       # Request fanout histogram
system.tol2bus.snoop_fanout::max_value              2                       # Request fanout histogram
system.tol2bus.snoop_fanout::total             422392                       # Request fanout histogram
system.tol2bus.reqLayer0.occupancy          228235500                       # Layer occupancy (ticks)
system.tol2bus.reqLayer0.utilization              1.5                       # Layer utilization (%)
system.tol2bus.respLayer0.occupancy              1500                       # Layer occupancy (ticks)
system.tol2bus.respLayer0.utilization             0.0                       # Layer utilization (%)
system.tol2bus.respLayer1.occupancy         339076500                       # Layer occupancy (ticks)
system.tol2bus.respLayer1.utilization             2.2                       # Layer utilization (%)

---------- End Simulation Statistics   ----------
