
---------- Begin Simulation Statistics ----------
sim_seconds                                  0.015267                       # Number of seconds simulated
sim_ticks                                 15267344125                       # Number of ticks simulated
final_tick                               1312991594750                       # Number of ticks from beginning of simulation (restored from checkpoints and never reset)
sim_freq                                 1000000000000                       # Frequency of simulated ticks
host_inst_rate                               13021532                       # Simulator instruction rate (inst/s)
host_op_rate                                 23894602                       # Simulator op (including micro ops) rate (op/s)
host_tick_rate                               69763431                       # Simulator tick rate (ticks/s)
host_mem_usage                                1248188                       # Number of bytes of host memory used
host_seconds                                   218.84                       # Real time elapsed on the host
sim_insts                                  2849690716                       # Number of instructions simulated
sim_ops                                    5229202287                       # Number of ops (including micro ops) simulated
system.voltage_domain.voltage                       1                       # Voltage in Volts
system.clk_domain.clock                          1000                       # Clock period in ticks
system.mem_ctrls.pwrStateResidencyTicks::UNDEFINED  15267344125                       # Cumulative time (in ticks) in various power states
system.mem_ctrls.bytes_read::cpu0.data         908480                       # Number of bytes read from this memory
system.mem_ctrls.bytes_read::total             908480                       # Number of bytes read from this memory
system.mem_ctrls.bytes_written::writebacks       862592                       # Number of bytes written to this memory
system.mem_ctrls.bytes_written::total          862592                       # Number of bytes written to this memory
system.mem_ctrls.num_reads::cpu0.data           14195                       # Number of read requests responded to by this memory
system.mem_ctrls.num_reads::total               14195                       # Number of read requests responded to by this memory
system.mem_ctrls.num_writes::writebacks         13478                       # Number of write requests responded to by this memory
system.mem_ctrls.num_writes::total              13478                       # Number of write requests responded to by this memory
system.mem_ctrls.bw_read::cpu0.data          59504783                       # Total read bandwidth from this memory (bytes/s)
system.mem_ctrls.bw_read::total              59504783                       # Total read bandwidth from this memory (bytes/s)
system.mem_ctrls.bw_write::writebacks        56499152                       # Write bandwidth from this memory (bytes/s)
system.mem_ctrls.bw_write::total             56499152                       # Write bandwidth from this memory (bytes/s)
system.mem_ctrls.bw_total::writebacks        56499152                       # Total bandwidth to/from this memory (bytes/s)
system.mem_ctrls.bw_total::cpu0.data         59504783                       # Total bandwidth to/from this memory (bytes/s)
system.mem_ctrls.bw_total::total            116003935                       # Total bandwidth to/from this memory (bytes/s)
system.mem_ctrls.readReqs                       14195                       # Number of read requests accepted
system.mem_ctrls.writeReqs                      13478                       # Number of write requests accepted
system.mem_ctrls.readBursts                     14195                       # Number of DRAM read bursts, including those serviced by the write queue
system.mem_ctrls.writeBursts                    13478                       # Number of DRAM write bursts, including those merged in the write queue
system.mem_ctrls.bytesReadDRAM                 908480                       # Total number of bytes read from DRAM
system.mem_ctrls.bytesReadWrQ                       0                       # Total number of bytes read from write queue
system.mem_ctrls.bytesWritten                  862720                       # Total number of bytes written to DRAM
system.mem_ctrls.bytesReadSys                  908480                       # Total read bytes from the system interface side
system.mem_ctrls.bytesWrittenSys               862592                       # Total written bytes from the system interface side
system.mem_ctrls.servicedByWrQ                      0                       # Number of DRAM read bursts serviced by the write queue
system.mem_ctrls.mergedWrBursts                     0                       # Number of DRAM write bursts merged with an existing one
system.mem_ctrls.neitherReadNorWriteReqs            0                       # Number of requests that are neither read nor write
system.mem_ctrls.perBankRdBursts::0               896                       # Per bank write bursts
system.mem_ctrls.perBankRdBursts::1               902                       # Per bank write bursts
system.mem_ctrls.perBankRdBursts::2               919                       # Per bank write bursts
system.mem_ctrls.perBankRdBursts::3               769                       # Per bank write bursts
system.mem_ctrls.perBankRdBursts::4               768                       # Per bank write bursts
system.mem_ctrls.perBankRdBursts::5               768                       # Per bank write bursts
system.mem_ctrls.perBankRdBursts::6               768                       # Per bank write bursts
system.mem_ctrls.perBankRdBursts::7               790                       # Per bank write bursts
system.mem_ctrls.perBankRdBursts::8               770                       # Per bank write bursts
system.mem_ctrls.perBankRdBursts::9               804                       # Per bank write bursts
system.mem_ctrls.perBankRdBursts::10             1013                       # Per bank write bursts
system.mem_ctrls.perBankRdBursts::11             1024                       # Per bank write bursts
system.mem_ctrls.perBankRdBursts::12              972                       # Per bank write bursts
system.mem_ctrls.perBankRdBursts::13             1010                       # Per bank write bursts
system.mem_ctrls.perBankRdBursts::14             1024                       # Per bank write bursts
system.mem_ctrls.perBankRdBursts::15              998                       # Per bank write bursts
system.mem_ctrls.perBankWrBursts::0               896                       # Per bank write bursts
system.mem_ctrls.perBankWrBursts::1               877                       # Per bank write bursts
system.mem_ctrls.perBankWrBursts::2               888                       # Per bank write bursts
system.mem_ctrls.perBankWrBursts::3               769                       # Per bank write bursts
system.mem_ctrls.perBankWrBursts::4               768                       # Per bank write bursts
system.mem_ctrls.perBankWrBursts::5               768                       # Per bank write bursts
system.mem_ctrls.perBankWrBursts::6               768                       # Per bank write bursts
system.mem_ctrls.perBankWrBursts::7               766                       # Per bank write bursts
system.mem_ctrls.perBankWrBursts::8               642                       # Per bank write bursts
system.mem_ctrls.perBankWrBursts::9               676                       # Per bank write bursts
system.mem_ctrls.perBankWrBursts::10              891                       # Per bank write bursts
system.mem_ctrls.perBankWrBursts::11              896                       # Per bank write bursts
system.mem_ctrls.perBankWrBursts::12              871                       # Per bank write bursts
system.mem_ctrls.perBankWrBursts::13              994                       # Per bank write bursts
system.mem_ctrls.perBankWrBursts::14             1024                       # Per bank write bursts
system.mem_ctrls.perBankWrBursts::15              986                       # Per bank write bursts
system.mem_ctrls.numRdRetry                         0                       # Number of times read queue was full causing retry
system.mem_ctrls.numWrRetry                         0                       # Number of times write queue was full causing retry
system.mem_ctrls.totGap                   15267439000                       # Total gap between requests
system.mem_ctrls.readPktSize::0                     0                       # Read request sizes (log2)
system.mem_ctrls.readPktSize::1                     0                       # Read request sizes (log2)
system.mem_ctrls.readPktSize::2                     0                       # Read request sizes (log2)
system.mem_ctrls.readPktSize::3                     0                       # Read request sizes (log2)
system.mem_ctrls.readPktSize::4                     0                       # Read request sizes (log2)
system.mem_ctrls.readPktSize::5                     0                       # Read request sizes (log2)
system.mem_ctrls.readPktSize::6                 14195                       # Read request sizes (log2)
system.mem_ctrls.writePktSize::0                    0                       # Write request sizes (log2)
system.mem_ctrls.writePktSize::1                    0                       # Write request sizes (log2)
system.mem_ctrls.writePktSize::2                    0                       # Write request sizes (log2)
system.mem_ctrls.writePktSize::3                    0                       # Write request sizes (log2)
system.mem_ctrls.writePktSize::4                    0                       # Write request sizes (log2)
system.mem_ctrls.writePktSize::5                    0                       # Write request sizes (log2)
system.mem_ctrls.writePktSize::6                13478                       # Write request sizes (log2)
system.mem_ctrls.rdQLenPdf::0                   14195                       # What read queue length does an incoming req see
system.mem_ctrls.rdQLenPdf::1                       0                       # What read queue length does an incoming req see
system.mem_ctrls.rdQLenPdf::2                       0                       # What read queue length does an incoming req see
system.mem_ctrls.rdQLenPdf::3                       0                       # What read queue length does an incoming req see
system.mem_ctrls.rdQLenPdf::4                       0                       # What read queue length does an incoming req see
system.mem_ctrls.rdQLenPdf::5                       0                       # What read queue length does an incoming req see
system.mem_ctrls.rdQLenPdf::6                       0                       # What read queue length does an incoming req see
system.mem_ctrls.rdQLenPdf::7                       0                       # What read queue length does an incoming req see
system.mem_ctrls.rdQLenPdf::8                       0                       # What read queue length does an incoming req see
system.mem_ctrls.rdQLenPdf::9                       0                       # What read queue length does an incoming req see
system.mem_ctrls.rdQLenPdf::10                      0                       # What read queue length does an incoming req see
system.mem_ctrls.rdQLenPdf::11                      0                       # What read queue length does an incoming req see
system.mem_ctrls.rdQLenPdf::12                      0                       # What read queue length does an incoming req see
system.mem_ctrls.rdQLenPdf::13                      0                       # What read queue length does an incoming req see
system.mem_ctrls.rdQLenPdf::14                      0                       # What read queue length does an incoming req see
system.mem_ctrls.rdQLenPdf::15                      0                       # What read queue length does an incoming req see
system.mem_ctrls.rdQLenPdf::16                      0                       # What read queue length does an incoming req see
system.mem_ctrls.rdQLenPdf::17                      0                       # What read queue length does an incoming req see
system.mem_ctrls.rdQLenPdf::18                      0                       # What read queue length does an incoming req see
system.mem_ctrls.rdQLenPdf::19                      0                       # What read queue length does an incoming req see
system.mem_ctrls.rdQLenPdf::20                      0                       # What read queue length does an incoming req see
system.mem_ctrls.rdQLenPdf::21                      0                       # What read queue length does an incoming req see
system.mem_ctrls.rdQLenPdf::22                      0                       # What read queue length does an incoming req see
system.mem_ctrls.rdQLenPdf::23                      0                       # What read queue length does an incoming req see
system.mem_ctrls.rdQLenPdf::24                      0                       # What read queue length does an incoming req see
system.mem_ctrls.rdQLenPdf::25                      0                       # What read queue length does an incoming req see
system.mem_ctrls.rdQLenPdf::26                      0                       # What read queue length does an incoming req see
system.mem_ctrls.rdQLenPdf::27                      0                       # What read queue length does an incoming req see
system.mem_ctrls.rdQLenPdf::28                      0                       # What read queue length does an incoming req see
system.mem_ctrls.rdQLenPdf::29                      0                       # What read queue length does an incoming req see
system.mem_ctrls.rdQLenPdf::30                      0                       # What read queue length does an incoming req see
system.mem_ctrls.rdQLenPdf::31                      0                       # What read queue length does an incoming req see
system.mem_ctrls.wrQLenPdf::0                       0                       # What write queue length does an incoming req see
system.mem_ctrls.wrQLenPdf::1                       0                       # What write queue length does an incoming req see
system.mem_ctrls.wrQLenPdf::2                       0                       # What write queue length does an incoming req see
system.mem_ctrls.wrQLenPdf::3                       0                       # What write queue length does an incoming req see
system.mem_ctrls.wrQLenPdf::4                       0                       # What write queue length does an incoming req see
system.mem_ctrls.wrQLenPdf::5                       0                       # What write queue length does an incoming req see
system.mem_ctrls.wrQLenPdf::6                       0                       # What write queue length does an incoming req see
system.mem_ctrls.wrQLenPdf::7                       0                       # What write queue length does an incoming req see
system.mem_ctrls.wrQLenPdf::8                       0                       # What write queue length does an incoming req see
system.mem_ctrls.wrQLenPdf::9                       0                       # What write queue length does an incoming req see
system.mem_ctrls.wrQLenPdf::10                      0                       # What write queue length does an incoming req see
system.mem_ctrls.wrQLenPdf::11                      0                       # What write queue length does an incoming req see
system.mem_ctrls.wrQLenPdf::12                      0                       # What write queue length does an incoming req see
system.mem_ctrls.wrQLenPdf::13                      0                       # What write queue length does an incoming req see
system.mem_ctrls.wrQLenPdf::14                      0                       # What write queue length does an incoming req see
system.mem_ctrls.wrQLenPdf::15                    730                       # What write queue length does an incoming req see
system.mem_ctrls.wrQLenPdf::16                    734                       # What write queue length does an incoming req see
system.mem_ctrls.wrQLenPdf::17                    751                       # What write queue length does an incoming req see
system.mem_ctrls.wrQLenPdf::18                    751                       # What write queue length does an incoming req see
system.mem_ctrls.wrQLenPdf::19                    750                       # What write queue length does an incoming req see
system.mem_ctrls.wrQLenPdf::20                    750                       # What write queue length does an incoming req see
system.mem_ctrls.wrQLenPdf::21                    751                       # What write queue length does an incoming req see
system.mem_ctrls.wrQLenPdf::22                    751                       # What write queue length does an incoming req see
system.mem_ctrls.wrQLenPdf::23                    751                       # What write queue length does an incoming req see
system.mem_ctrls.wrQLenPdf::24                    751                       # What write queue length does an incoming req see
system.mem_ctrls.wrQLenPdf::25                    751                       # What write queue length does an incoming req see
system.mem_ctrls.wrQLenPdf::26                    751                       # What write queue length does an incoming req see
system.mem_ctrls.wrQLenPdf::27                    751                       # What write queue length does an incoming req see
system.mem_ctrls.wrQLenPdf::28                    751                       # What write queue length does an incoming req see
system.mem_ctrls.wrQLenPdf::29                    751                       # What write queue length does an incoming req see
system.mem_ctrls.wrQLenPdf::30                    751                       # What write queue length does an incoming req see
system.mem_ctrls.wrQLenPdf::31                    751                       # What write queue length does an incoming req see
system.mem_ctrls.wrQLenPdf::32                    751                       # What write queue length does an incoming req see
system.mem_ctrls.wrQLenPdf::33                      0                       # What write queue length does an incoming req see
system.mem_ctrls.wrQLenPdf::34                      0                       # What write queue length does an incoming req see
system.mem_ctrls.wrQLenPdf::35                      0                       # What write queue length does an incoming req see
system.mem_ctrls.wrQLenPdf::36                      0                       # What write queue length does an incoming req see
system.mem_ctrls.wrQLenPdf::37                      0                       # What write queue length does an incoming req see
system.mem_ctrls.wrQLenPdf::38                      0                       # What write queue length does an incoming req see
system.mem_ctrls.wrQLenPdf::39                      0                       # What write queue length does an incoming req see
system.mem_ctrls.wrQLenPdf::40                      0                       # What write queue length does an incoming req see
system.mem_ctrls.wrQLenPdf::41                      0                       # What write queue length does an incoming req see
system.mem_ctrls.wrQLenPdf::42                      0                       # What write queue length does an incoming req see
system.mem_ctrls.wrQLenPdf::43                      0                       # What write queue length does an incoming req see
system.mem_ctrls.wrQLenPdf::44                      0                       # What write queue length does an incoming req see
system.mem_ctrls.wrQLenPdf::45                      0                       # What write queue length does an incoming req see
system.mem_ctrls.wrQLenPdf::46                      0                       # What write queue length does an incoming req see
system.mem_ctrls.wrQLenPdf::47                      0                       # What write queue length does an incoming req see
system.mem_ctrls.wrQLenPdf::48                      0                       # What write queue length does an incoming req see
system.mem_ctrls.wrQLenPdf::49                      0                       # What write queue length does an incoming req see
system.mem_ctrls.wrQLenPdf::50                      0                       # What write queue length does an incoming req see
system.mem_ctrls.wrQLenPdf::51                      0                       # What write queue length does an incoming req see
system.mem_ctrls.wrQLenPdf::52                      0                       # What write queue length does an incoming req see
system.mem_ctrls.wrQLenPdf::53                      0                       # What write queue length does an incoming req see
system.mem_ctrls.wrQLenPdf::54                      0                       # What write queue length does an incoming req see
system.mem_ctrls.wrQLenPdf::55                      0                       # What write queue length does an incoming req see
system.mem_ctrls.wrQLenPdf::56                      0                       # What write queue length does an incoming req see
system.mem_ctrls.wrQLenPdf::57                      0                       # What write queue length does an incoming req see
system.mem_ctrls.wrQLenPdf::58                      0                       # What write queue length does an incoming req see
system.mem_ctrls.wrQLenPdf::59                      0                       # What write queue length does an incoming req see
system.mem_ctrls.wrQLenPdf::60                      0                       # What write queue length does an incoming req see
system.mem_ctrls.wrQLenPdf::61                      0                       # What write queue length does an incoming req see
system.mem_ctrls.wrQLenPdf::62                      0                       # What write queue length does an incoming req see
system.mem_ctrls.wrQLenPdf::63                      0                       # What write queue length does an incoming req see
system.mem_ctrls.bytesPerActivate::samples         5990                       # Bytes accessed per row activation
system.mem_ctrls.bytesPerActivate::mean    295.650083                       # Bytes accessed per row activation
system.mem_ctrls.bytesPerActivate::gmean   183.717422                       # Bytes accessed per row activation
system.mem_ctrls.bytesPerActivate::stdev   290.899975                       # Bytes accessed per row activation
system.mem_ctrls.bytesPerActivate::0-127         2391     39.92%     39.92% # Bytes accessed per row activation
system.mem_ctrls.bytesPerActivate::128-255          811     13.54%     53.46% # Bytes accessed per row activation
system.mem_ctrls.bytesPerActivate::256-383          586      9.78%     63.24% # Bytes accessed per row activation
system.mem_ctrls.bytesPerActivate::384-511         1433     23.92%     87.16% # Bytes accessed per row activation
system.mem_ctrls.bytesPerActivate::512-639           59      0.98%     88.15% # Bytes accessed per row activation
system.mem_ctrls.bytesPerActivate::640-767           49      0.82%     88.96% # Bytes accessed per row activation
system.mem_ctrls.bytesPerActivate::768-895           54      0.90%     89.87% # Bytes accessed per row activation
system.mem_ctrls.bytesPerActivate::896-1023           83      1.39%     91.25% # Bytes accessed per row activation
system.mem_ctrls.bytesPerActivate::1024-1151          524      8.75%    100.00% # Bytes accessed per row activation
system.mem_ctrls.bytesPerActivate::total         5990                       # Bytes accessed per row activation
system.mem_ctrls.rdPerTurnAround::samples          751                       # Reads before turning the bus around for writes
system.mem_ctrls.rdPerTurnAround::mean      18.904128                       # Reads before turning the bus around for writes
system.mem_ctrls.rdPerTurnAround::gmean     18.431605                       # Reads before turning the bus around for writes
system.mem_ctrls.rdPerTurnAround::stdev      8.295308                       # Reads before turning the bus around for writes
system.mem_ctrls.rdPerTurnAround::16-23           743     98.93%     98.93% # Reads before turning the bus around for writes
system.mem_ctrls.rdPerTurnAround::24-31             1      0.13%     99.07% # Reads before turning the bus around for writes
system.mem_ctrls.rdPerTurnAround::32-39             1      0.13%     99.20% # Reads before turning the bus around for writes
system.mem_ctrls.rdPerTurnAround::72-79             2      0.27%     99.47% # Reads before turning the bus around for writes
system.mem_ctrls.rdPerTurnAround::80-87             1      0.13%     99.60% # Reads before turning the bus around for writes
system.mem_ctrls.rdPerTurnAround::120-127            1      0.13%     99.73% # Reads before turning the bus around for writes
system.mem_ctrls.rdPerTurnAround::136-143            2      0.27%    100.00% # Reads before turning the bus around for writes
system.mem_ctrls.rdPerTurnAround::total           751                       # Reads before turning the bus around for writes
system.mem_ctrls.wrPerTurnAround::samples          751                       # Writes before turning the bus around for reads
system.mem_ctrls.wrPerTurnAround::mean      17.949401                       # Writes before turning the bus around for reads
system.mem_ctrls.wrPerTurnAround::gmean     17.946608                       # Writes before turning the bus around for reads
system.mem_ctrls.wrPerTurnAround::stdev      0.305674                       # Writes before turning the bus around for reads
system.mem_ctrls.wrPerTurnAround::16               17      2.26%      2.26% # Writes before turning the bus around for reads
system.mem_ctrls.wrPerTurnAround::17                4      0.53%      2.80% # Writes before turning the bus around for reads
system.mem_ctrls.wrPerTurnAround::18              730     97.20%    100.00% # Writes before turning the bus around for reads
system.mem_ctrls.wrPerTurnAround::total           751                       # Writes before turning the bus around for reads
system.mem_ctrls.totQLat                    362476250                       # Total ticks spent queuing
system.mem_ctrls.totMemAccLat               628632500                       # Total ticks spent from burst creation until serviced by the DRAM
system.mem_ctrls.totBusLat                   70975000                       # Total ticks spent in databus transfers
system.mem_ctrls.avgQLat                     25535.49                       # Average queueing delay per DRAM burst
system.mem_ctrls.avgBusLat                    5000.00                       # Average bus latency per DRAM burst
system.mem_ctrls.avgMemAccLat                44285.49                       # Average memory access latency per DRAM burst
system.mem_ctrls.avgRdBW                        59.50                       # Average DRAM read bandwidth in MiByte/s
system.mem_ctrls.avgWrBW                        56.51                       # Average achieved write bandwidth in MiByte/s
system.mem_ctrls.avgRdBWSys                     59.50                       # Average system read bandwidth in MiByte/s
system.mem_ctrls.avgWrBWSys                     56.50                       # Average system write bandwidth in MiByte/s
system.mem_ctrls.peakBW                      12800.00                       # Theoretical peak bandwidth in MiByte/s
system.mem_ctrls.busUtil                         0.91                       # Data bus utilization in percentage
system.mem_ctrls.busUtilRead                     0.46                       # Data bus utilization in percentage for reads
system.mem_ctrls.busUtilWrite                    0.44                       # Data bus utilization in percentage for writes
system.mem_ctrls.avgRdQLen                       1.00                       # Average read queue length when enqueuing
system.mem_ctrls.avgWrQLen                      24.58                       # Average write queue length when enqueuing
system.mem_ctrls.readRowHits                    10281                       # Number of row buffer hits during reads
system.mem_ctrls.writeRowHits                   11403                       # Number of row buffer hits during writes
system.mem_ctrls.readRowHitRate                 72.43                       # Row buffer hit rate for reads
system.mem_ctrls.writeRowHitRate                84.60                       # Row buffer hit rate for writes
system.mem_ctrls.avgGap                     551708.85                       # Average gap between requests
system.mem_ctrls.pageHitRate                    78.36                       # Row buffer hit rate, read and write combined
system.mem_ctrls_0.actEnergy                 19013820                       # Energy for activate commands per rank (pJ)
system.mem_ctrls_0.preEnergy                 10106085                       # Energy for precharge commands per rank (pJ)
system.mem_ctrls_0.readEnergy                46981200                       # Energy for read commands per rank (pJ)
system.mem_ctrls_0.writeEnergy               33930000                       # Energy for write commands per rank (pJ)
system.mem_ctrls_0.refreshEnergy         1129093680.000000                       # Energy for refresh commands per rank (pJ)
system.mem_ctrls_0.actBackEnergy            625715220                       # Energy for active background per rank (pJ)
system.mem_ctrls_0.preBackEnergy             56860800                       # Energy for precharge background per rank (pJ)
system.mem_ctrls_0.actPowerDownEnergy      3239220510                       # Energy for active power-down per rank (pJ)
system.mem_ctrls_0.prePowerDownEnergy      1261245120                       # Energy for precharge power-down per rank (pJ)
system.mem_ctrls_0.selfRefreshEnergy        988408800                       # Energy for self refresh per rank (pJ)
system.mem_ctrls_0.totalEnergy             7410616995                       # Total energy per rank (pJ)
system.mem_ctrls_0.averagePower            485.390054                       # Core power per rank (mW)
system.mem_ctrls_0.totalIdleTime          13742494625                       # Total Idle time Per DRAM Rank
system.mem_ctrls_0.memoryStateTime::IDLE     97865000                       # Time in different power states
system.mem_ctrls_0.memoryStateTime::REF     479606000                       # Time in different power states
system.mem_ctrls_0.memoryStateTime::SREF   3358951250                       # Time in different power states
system.mem_ctrls_0.memoryStateTime::PRE_PDN   3284700875                       # Time in different power states
system.mem_ctrls_0.memoryStateTime::ACT     942740750                       # Time in different power states
system.mem_ctrls_0.memoryStateTime::ACT_PDN   7103480250                       # Time in different power states
system.mem_ctrls_1.actEnergy                 23761920                       # Energy for activate commands per rank (pJ)
system.mem_ctrls_1.preEnergy                 12625965                       # Energy for precharge commands per rank (pJ)
system.mem_ctrls_1.readEnergy                54371100                       # Energy for read commands per rank (pJ)
system.mem_ctrls_1.writeEnergy               36435600                       # Energy for write commands per rank (pJ)
system.mem_ctrls_1.refreshEnergy         1178879520.000000                       # Energy for refresh commands per rank (pJ)
system.mem_ctrls_1.actBackEnergy            730299960                       # Energy for active background per rank (pJ)
system.mem_ctrls_1.preBackEnergy             50597280                       # Energy for precharge background per rank (pJ)
system.mem_ctrls_1.actPowerDownEnergy      3756956640                       # Energy for active power-down per rank (pJ)
system.mem_ctrls_1.prePowerDownEnergy      1167244800                       # Energy for precharge power-down per rank (pJ)
system.mem_ctrls_1.selfRefreshEnergy        688193040                       # Energy for self refresh per rank (pJ)
system.mem_ctrls_1.totalEnergy             7699457895                       # Total energy per rank (pJ)
system.mem_ctrls_1.averagePower            504.308924                       # Core power per rank (mW)
system.mem_ctrls_1.totalIdleTime          13533264875                       # Total Idle time Per DRAM Rank
system.mem_ctrls_1.memoryStateTime::IDLE     79218000                       # Time in different power states
system.mem_ctrls_1.memoryStateTime::REF     500318000                       # Time in different power states
system.mem_ctrls_1.memoryStateTime::SREF   2255194750                       # Time in different power states
system.mem_ctrls_1.memoryStateTime::PRE_PDN   3039719625                       # Time in different power states
system.mem_ctrls_1.memoryStateTime::ACT    1153928250                       # Time in different power states
system.mem_ctrls_1.memoryStateTime::ACT_PDN   8238965500                       # Time in different power states
system.pwrStateResidencyTicks::UNDEFINED  15267344125                       # Cumulative time (in ticks) in various power states
system.cpu0.branchPred.lookups                5294270                       # Number of BP lookups
system.cpu0.branchPred.condPredicted          5294270                       # Number of conditional branches predicted
system.cpu0.branchPred.condIncorrect           121607                       # Number of conditional branches incorrect
system.cpu0.branchPred.BTBLookups             3681632                       # Number of BTB lookups
system.cpu0.branchPred.BTBHits                      0                       # Number of BTB hits
system.cpu0.branchPred.BTBCorrect                   0                       # Number of correct BTB predictions (this stat may not work properly.
system.cpu0.branchPred.BTBHitPct             0.000000                       # BTB Hit Percentage
system.cpu0.branchPred.usedRAS                 766844                       # Number of times the RAS was used to get a target.
system.cpu0.branchPred.RASInCorrect              5959                       # Number of incorrect RAS predictions.
system.cpu0.branchPred.indirectLookups        3681632                       # Number of indirect predictor lookups.
system.cpu0.branchPred.indirectHits           2524502                       # Number of indirect target hits.
system.cpu0.branchPred.indirectMisses         1157130                       # Number of indirect misses.
system.cpu0.branchPredindirectMispredicted           52                       # Number of mispredicted indirect branches.
system.cpu_voltage_domain.voltage                   1                       # Voltage in Volts
system.cpu_clk_domain.clock                       500                       # Clock period in ticks
system.cpu0.dtb.walker.pwrStateResidencyTicks::UNDEFINED  15267344125                       # Cumulative time (in ticks) in various power states
system.cpu0.dtb.rdAccesses                    8937591                       # TLB accesses on read requests
system.cpu0.dtb.wrAccesses                    2091372                       # TLB accesses on write requests
system.cpu0.dtb.rdMisses                        13475                       # TLB misses on read requests
system.cpu0.dtb.wrMisses                            0                       # TLB misses on write requests
system.cpu0.apic_clk_domain.clock                8000                       # Clock period in ticks
system.cpu0.interrupts.pwrStateResidencyTicks::UNDEFINED  15267344125                       # Cumulative time (in ticks) in various power states
system.cpu0.itb.walker.pwrStateResidencyTicks::UNDEFINED  15267344125                       # Cumulative time (in ticks) in various power states
system.cpu0.itb.rdAccesses                          0                       # TLB accesses on read requests
system.cpu0.itb.wrAccesses                    6296370                       # TLB accesses on write requests
system.cpu0.itb.rdMisses                            0                       # TLB misses on read requests
system.cpu0.itb.wrMisses                            0                       # TLB misses on write requests
system.cpu0.workload.numSyscalls                    0                       # Number of system calls
system.cpu0.pwrStateResidencyTicks::ON    15267344125                       # Cumulative time (in ticks) in various power states
system.cpu0.numCycles                        30534688                       # number of cpu cycles simulated
system.cpu0.numWorkItemsStarted                     0                       # number of work items this cpu started
system.cpu0.numWorkItemsCompleted                   0                       # number of work items this cpu completed
system.cpu0.fetch.icacheStallCycles           6360357                       # Number of cycles fetch is stalled on an Icache miss
system.cpu0.fetch.Insts                      46733851                       # Number of instructions fetch has processed
system.cpu0.fetch.Branches                    5294270                       # Number of branches that fetch encountered
system.cpu0.fetch.predictedBranches           3291346                       # Number of branches that fetch has predicted taken
system.cpu0.fetch.Cycles                     24052621                       # Number of cycles fetch has run and was not squashing or blocked
system.cpu0.fetch.SquashCycles                 243420                       # Number of cycles fetch has spent squashing
system.cpu0.fetch.CacheLines                  6296370                       # Number of cache lines fetched
system.cpu0.fetch.IcacheSquashes                57697                       # Number of outstanding Icache misses that were squashed
system.cpu0.fetch.rateDist::samples          30534688                       # Number of instructions fetched each cycle (Total)
system.cpu0.fetch.rateDist::mean             2.677132                       # Number of instructions fetched each cycle (Total)
system.cpu0.fetch.rateDist::stdev            3.373823                       # Number of instructions fetched each cycle (Total)
system.cpu0.fetch.rateDist::underflows              0      0.00%      0.00% # Number of instructions fetched each cycle (Total)
system.cpu0.fetch.rateDist::0                16680886     54.63%     54.63% # Number of instructions fetched each cycle (Total)
system.cpu0.fetch.rateDist::1                  723105      2.37%     57.00% # Number of instructions fetched each cycle (Total)
system.cpu0.fetch.rateDist::2                 1670841      5.47%     62.47% # Number of instructions fetched each cycle (Total)
system.cpu0.fetch.rateDist::3                  654704      2.14%     64.61% # Number of instructions fetched each cycle (Total)
system.cpu0.fetch.rateDist::4                  986398      3.23%     67.84% # Number of instructions fetched each cycle (Total)
system.cpu0.fetch.rateDist::5                 1573719      5.15%     73.00% # Number of instructions fetched each cycle (Total)
system.cpu0.fetch.rateDist::6                  586621      1.92%     74.92% # Number of instructions fetched each cycle (Total)
system.cpu0.fetch.rateDist::7                  884745      2.90%     77.82% # Number of instructions fetched each cycle (Total)
system.cpu0.fetch.rateDist::8                 6773669     22.18%    100.00% # Number of instructions fetched each cycle (Total)
system.cpu0.fetch.rateDist::overflows               0      0.00%    100.00% # Number of instructions fetched each cycle (Total)
system.cpu0.fetch.rateDist::min_value               0                       # Number of instructions fetched each cycle (Total)
system.cpu0.fetch.rateDist::max_value               8                       # Number of instructions fetched each cycle (Total)
system.cpu0.fetch.rateDist::total            30534688                       # Number of instructions fetched each cycle (Total)
system.cpu0.fetch.branchRate                 0.173385                       # Number of branch fetches per cycle
system.cpu0.fetch.rate                       1.530517                       # Number of inst fetches per cycle
system.cpu0.decode.IdleCycles                 4215939                       # Number of cycles decode is idle
system.cpu0.decode.BlockedCycles             15580525                       # Number of cycles decode is blocked
system.cpu0.decode.RunCycles                  6317139                       # Number of cycles decode is running
system.cpu0.decode.UnblockCycles              4299375                       # Number of cycles decode is unblocking
system.cpu0.decode.SquashCycles                121710                       # Number of cycles decode is squashing
system.cpu0.decode.DecodedInsts              77982394                       # Number of instructions handled by decode
system.cpu0.rename.SquashCycles                121710                       # Number of cycles rename is squashing
system.cpu0.rename.IdleCycles                 5905062                       # Number of cycles rename is idle
system.cpu0.rename.BlockCycles                5684962                       # Number of cycles rename is blocking
system.cpu0.rename.serializeStallCycles             6                       # count of cycles rename stalled for serializing inst
system.cpu0.rename.RunCycles                  8869758                       # Number of cycles rename is running
system.cpu0.rename.UnblockCycles              9953190                       # Number of cycles rename is unblocking
system.cpu0.rename.RenamedInsts              77385140                       # Number of instructions processed by rename
system.cpu0.rename.ROBFullEvents               194304                       # Number of times rename has blocked due to ROB full
system.cpu0.rename.IQFullEvents               8902345                       # Number of times rename has blocked due to IQ full
system.cpu0.rename.LQFullEvents                    24                       # Number of times rename has blocked due to LQ full
system.cpu0.rename.RenamedOperands           83217742                       # Number of destination operands rename has renamed
system.cpu0.rename.RenameLookups            183841925                       # Number of register rename lookups that rename has made
system.cpu0.rename.int_rename_lookups        60633210                       # Number of integer rename lookups
system.cpu0.rename.fp_rename_lookups         75426792                       # Number of floating rename lookups
system.cpu0.rename.CommittedMaps             70294349                       # Number of HB maps that are committed
system.cpu0.rename.UndoneMaps                12923556                       # Number of HB maps that are undone due to squashing
system.cpu0.rename.serializingInsts                 3                       # count of serializing insts renamed
system.cpu0.rename.tempSerializingInsts             3                       # count of temporary serializing insts renamed
system.cpu0.rename.skidInsts                 22912609                       # count of insts added to the skid buffer
system.cpu0.memDep0.insertedLoads             9561266                       # Number of loads inserted to the mem dependence unit.
system.cpu0.memDep0.insertedStores            2099721                       # Number of stores inserted to the mem dependence unit.
system.cpu0.memDep0.conflictingLoads           424157                       # Number of conflicting loads.
system.cpu0.memDep0.conflictingStores          183995                       # Number of conflicting stores.
system.cpu0.iq.iqInstsAdded                  76594942                       # Number of instructions added to the IQ (excludes non-spec)
system.cpu0.iq.iqNonSpecInstsAdded                  2                       # Number of non-speculative instructions added to the IQ
system.cpu0.iq.iqInstsIssued                 70748703                       # Number of instructions issued
system.cpu0.iq.iqSquashedInstsIssued               45                       # Number of squashed instructions issued
system.cpu0.iq.iqSquashedInstsExamined       10905549                       # Number of squashed instructions iterated over during squash; mainly for profiling
system.cpu0.iq.iqSquashedOperandsExamined     15846101                       # Number of squashed operands that are examined and possibly removed from graph
system.cpu0.iq.iqSquashedNonSpecRemoved             2                       # Number of squashed non-spec instructions that were removed
system.cpu0.iq.issued_per_cycle::samples     30534688                       # Number of insts issued each cycle
system.cpu0.iq.issued_per_cycle::mean        2.316994                       # Number of insts issued each cycle
system.cpu0.iq.issued_per_cycle::stdev       1.960609                       # Number of insts issued each cycle
system.cpu0.iq.issued_per_cycle::underflows            0      0.00%      0.00% # Number of insts issued each cycle
system.cpu0.iq.issued_per_cycle::0            6384969     20.91%     20.91% # Number of insts issued each cycle
system.cpu0.iq.issued_per_cycle::1            6083049     19.92%     40.83% # Number of insts issued each cycle
system.cpu0.iq.issued_per_cycle::2            5638883     18.47%     59.30% # Number of insts issued each cycle
system.cpu0.iq.issued_per_cycle::3            4838116     15.84%     75.14% # Number of insts issued each cycle
system.cpu0.iq.issued_per_cycle::4            3001206      9.83%     84.97% # Number of insts issued each cycle
system.cpu0.iq.issued_per_cycle::5            1969700      6.45%     91.42% # Number of insts issued each cycle
system.cpu0.iq.issued_per_cycle::6            1601737      5.25%     96.67% # Number of insts issued each cycle
system.cpu0.iq.issued_per_cycle::7             726430      2.38%     99.05% # Number of insts issued each cycle
system.cpu0.iq.issued_per_cycle::8             290598      0.95%    100.00% # Number of insts issued each cycle
system.cpu0.iq.issued_per_cycle::overflows            0      0.00%    100.00% # Number of insts issued each cycle
system.cpu0.iq.issued_per_cycle::min_value            0                       # Number of insts issued each cycle
system.cpu0.iq.issued_per_cycle::max_value            8                       # Number of insts issued each cycle
system.cpu0.iq.issued_per_cycle::total       30534688                       # Number of insts issued each cycle
system.cpu0.iq.fu_full::No_OpClass                  0      0.00%      0.00% # attempts to use FU when none available
system.cpu0.iq.fu_full::IntAlu                     23      0.02%      0.02% # attempts to use FU when none available
system.cpu0.iq.fu_full::IntMult                     0      0.00%      0.02% # attempts to use FU when none available
system.cpu0.iq.fu_full::IntDiv                      0      0.00%      0.02% # attempts to use FU when none available
system.cpu0.iq.fu_full::FloatAdd               117786     99.83%     99.85% # attempts to use FU when none available
system.cpu0.iq.fu_full::FloatCmp                    0      0.00%     99.85% # attempts to use FU when none available
system.cpu0.iq.fu_full::FloatCvt                    0      0.00%     99.85% # attempts to use FU when none available
system.cpu0.iq.fu_full::FloatMult                   0      0.00%     99.85% # attempts to use FU when none available
system.cpu0.iq.fu_full::FloatMultAcc                0      0.00%     99.85% # attempts to use FU when none available
system.cpu0.iq.fu_full::FloatDiv                    0      0.00%     99.85% # attempts to use FU when none available
system.cpu0.iq.fu_full::FloatMisc                   0      0.00%     99.85% # attempts to use FU when none available
system.cpu0.iq.fu_full::FloatSqrt                   0      0.00%     99.85% # attempts to use FU when none available
system.cpu0.iq.fu_full::SimdAdd                     0      0.00%     99.85% # attempts to use FU when none available
system.cpu0.iq.fu_full::SimdAddAcc                  0      0.00%     99.85% # attempts to use FU when none available
system.cpu0.iq.fu_full::SimdAlu                     0      0.00%     99.85% # attempts to use FU when none available
system.cpu0.iq.fu_full::SimdCmp                     0      0.00%     99.85% # attempts to use FU when none available
system.cpu0.iq.fu_full::SimdCvt                     0      0.00%     99.85% # attempts to use FU when none available
system.cpu0.iq.fu_full::SimdMisc                    0      0.00%     99.85% # attempts to use FU when none available
system.cpu0.iq.fu_full::SimdMult                    0      0.00%     99.85% # attempts to use FU when none available
system.cpu0.iq.fu_full::SimdMultAcc                 0      0.00%     99.85% # attempts to use FU when none available
system.cpu0.iq.fu_full::SimdShift                   0      0.00%     99.85% # attempts to use FU when none available
system.cpu0.iq.fu_full::SimdShiftAcc                0      0.00%     99.85% # attempts to use FU when none available
system.cpu0.iq.fu_full::SimdSqrt                    0      0.00%     99.85% # attempts to use FU when none available
system.cpu0.iq.fu_full::SimdFloatAdd                0      0.00%     99.85% # attempts to use FU when none available
system.cpu0.iq.fu_full::SimdFloatAlu                0      0.00%     99.85% # attempts to use FU when none available
system.cpu0.iq.fu_full::SimdFloatCmp                0      0.00%     99.85% # attempts to use FU when none available
system.cpu0.iq.fu_full::SimdFloatCvt                0      0.00%     99.85% # attempts to use FU when none available
system.cpu0.iq.fu_full::SimdFloatDiv                0      0.00%     99.85% # attempts to use FU when none available
system.cpu0.iq.fu_full::SimdFloatMisc               0      0.00%     99.85% # attempts to use FU when none available
system.cpu0.iq.fu_full::SimdFloatMult               0      0.00%     99.85% # attempts to use FU when none available
system.cpu0.iq.fu_full::SimdFloatMultAcc            0      0.00%     99.85% # attempts to use FU when none available
system.cpu0.iq.fu_full::SimdFloatSqrt               0      0.00%     99.85% # attempts to use FU when none available
system.cpu0.iq.fu_full::MemRead                   180      0.15%    100.00% # attempts to use FU when none available
system.cpu0.iq.fu_full::MemWrite                    0      0.00%    100.00% # attempts to use FU when none available
system.cpu0.iq.fu_full::FloatMemRead                0      0.00%    100.00% # attempts to use FU when none available
system.cpu0.iq.fu_full::FloatMemWrite               0      0.00%    100.00% # attempts to use FU when none available
system.cpu0.iq.fu_full::IprAccess                   0      0.00%    100.00% # attempts to use FU when none available
system.cpu0.iq.fu_full::InstPrefetch                0      0.00%    100.00% # attempts to use FU when none available
system.cpu0.iq.FU_type_0::No_OpClass             6191      0.01%      0.01% # Type of FU issued
system.cpu0.iq.FU_type_0::IntAlu             36793447     52.01%     52.01% # Type of FU issued
system.cpu0.iq.FU_type_0::IntMult                   0      0.00%     52.01% # Type of FU issued
system.cpu0.iq.FU_type_0::IntDiv                    0      0.00%     52.01% # Type of FU issued
system.cpu0.iq.FU_type_0::FloatAdd           22922943     32.40%     84.42% # Type of FU issued
system.cpu0.iq.FU_type_0::FloatCmp                  0      0.00%     84.42% # Type of FU issued
system.cpu0.iq.FU_type_0::FloatCvt                  0      0.00%     84.42% # Type of FU issued
system.cpu0.iq.FU_type_0::FloatMult                 0      0.00%     84.42% # Type of FU issued
system.cpu0.iq.FU_type_0::FloatMultAcc              0      0.00%     84.42% # Type of FU issued
system.cpu0.iq.FU_type_0::FloatDiv                  0      0.00%     84.42% # Type of FU issued
system.cpu0.iq.FU_type_0::FloatMisc                 0      0.00%     84.42% # Type of FU issued
system.cpu0.iq.FU_type_0::FloatSqrt                 0      0.00%     84.42% # Type of FU issued
system.cpu0.iq.FU_type_0::SimdAdd                   0      0.00%     84.42% # Type of FU issued
system.cpu0.iq.FU_type_0::SimdAddAcc                0      0.00%     84.42% # Type of FU issued
system.cpu0.iq.FU_type_0::SimdAlu                   0      0.00%     84.42% # Type of FU issued
system.cpu0.iq.FU_type_0::SimdCmp                   0      0.00%     84.42% # Type of FU issued
system.cpu0.iq.FU_type_0::SimdCvt                   0      0.00%     84.42% # Type of FU issued
system.cpu0.iq.FU_type_0::SimdMisc                  0      0.00%     84.42% # Type of FU issued
system.cpu0.iq.FU_type_0::SimdMult                  0      0.00%     84.42% # Type of FU issued
system.cpu0.iq.FU_type_0::SimdMultAcc               0      0.00%     84.42% # Type of FU issued
system.cpu0.iq.FU_type_0::SimdShift                 0      0.00%     84.42% # Type of FU issued
system.cpu0.iq.FU_type_0::SimdShiftAcc              0      0.00%     84.42% # Type of FU issued
system.cpu0.iq.FU_type_0::SimdSqrt                  0      0.00%     84.42% # Type of FU issued
system.cpu0.iq.FU_type_0::SimdFloatAdd              0      0.00%     84.42% # Type of FU issued
system.cpu0.iq.FU_type_0::SimdFloatAlu              0      0.00%     84.42% # Type of FU issued
system.cpu0.iq.FU_type_0::SimdFloatCmp              0      0.00%     84.42% # Type of FU issued
system.cpu0.iq.FU_type_0::SimdFloatCvt              0      0.00%     84.42% # Type of FU issued
system.cpu0.iq.FU_type_0::SimdFloatDiv              0      0.00%     84.42% # Type of FU issued
system.cpu0.iq.FU_type_0::SimdFloatMisc             0      0.00%     84.42% # Type of FU issued
system.cpu0.iq.FU_type_0::SimdFloatMult             0      0.00%     84.42% # Type of FU issued
system.cpu0.iq.FU_type_0::SimdFloatMultAcc            0      0.00%     84.42% # Type of FU issued
system.cpu0.iq.FU_type_0::SimdFloatSqrt             0      0.00%     84.42% # Type of FU issued
system.cpu0.iq.FU_type_0::MemRead             1978714      2.80%     87.21% # Type of FU issued
system.cpu0.iq.FU_type_0::MemWrite            1467029      2.07%     89.29% # Type of FU issued
system.cpu0.iq.FU_type_0::FloatMemRead        6955457      9.83%     99.12% # Type of FU issued
system.cpu0.iq.FU_type_0::FloatMemWrite        624922      0.88%    100.00% # Type of FU issued
system.cpu0.iq.FU_type_0::IprAccess                 0      0.00%    100.00% # Type of FU issued
system.cpu0.iq.FU_type_0::InstPrefetch              0      0.00%    100.00% # Type of FU issued
system.cpu0.iq.FU_type_0::total              70748703                       # Type of FU issued
system.cpu0.iq.rate                          2.316994                       # Inst issue rate
system.cpu0.iq.fu_busy_cnt                     117989                       # FU busy when requested
system.cpu0.iq.fu_busy_rate                  0.001668                       # FU busy rate (busy events/executed inst)
system.cpu0.iq.int_inst_queue_reads          97493758                       # Number of integer instruction queue reads
system.cpu0.iq.int_inst_queue_writes         37670377                       # Number of integer instruction queue writes
system.cpu0.iq.int_inst_queue_wakeup_accesses     33386375                       # Number of integer instruction queue wakeup accesses
system.cpu0.iq.fp_inst_queue_reads           74656373                       # Number of floating instruction queue reads
system.cpu0.iq.fp_inst_queue_writes          49830219                       # Number of floating instruction queue writes
system.cpu0.iq.fp_inst_queue_wakeup_accesses     37087504                       # Number of floating instruction queue wakeup accesses
system.cpu0.iq.vec_inst_queue_reads                 0                       # Number of vector instruction queue reads
system.cpu0.iq.vec_inst_queue_writes                0                       # Number of vector instruction queue writes
system.cpu0.iq.vec_inst_queue_wakeup_accesses            0                       # Number of vector instruction queue wakeup accesses
system.cpu0.iq.int_alu_accesses              33473436                       # Number of integer alu accesses
system.cpu0.iq.fp_alu_accesses               37387065                       # Number of floating point alu accesses
system.cpu0.iq.vec_alu_accesses                     0                       # Number of vector alu accesses
system.cpu0.iew.lsq.thread0.forwLoads          417907                       # Number of loads that had data forwarded from stores
system.cpu0.iew.lsq.thread0.invAddrLoads            0                       # Number of loads ignored due to an invalid address
system.cpu0.iew.lsq.thread0.squashedLoads      1470569                       # Number of loads squashed
system.cpu0.iew.lsq.thread0.ignoredResponses            4                       # Number of memory responses ignored because the instruction is squashed
system.cpu0.iew.lsq.thread0.memOrderViolation          103                       # Number of memory ordering violations
system.cpu0.iew.lsq.thread0.squashedStores         9645                       # Number of stores squashed
system.cpu0.iew.lsq.thread0.invAddrSwpfs            0                       # Number of software prefetches ignored due to an invalid address
system.cpu0.iew.lsq.thread0.blockedLoads            0                       # Number of blocked loads due to partial load-store forwarding
system.cpu0.iew.lsq.thread0.rescheduledLoads            1                       # Number of loads that were rescheduled
system.cpu0.iew.lsq.thread0.cacheBlocked            0                       # Number of times an access to memory failed due to the cache being blocked
system.cpu0.iew.iewIdleCycles                       0                       # Number of cycles IEW is idle
system.cpu0.iew.iewSquashCycles                121710                       # Number of cycles IEW is squashing
system.cpu0.iew.iewBlockCycles                3354774                       # Number of cycles IEW is blocking
system.cpu0.iew.iewUnblockCycles               117316                       # Number of cycles IEW is unblocking
system.cpu0.iew.iewDispatchedInsts           76594944                       # Number of instructions dispatched to IQ
system.cpu0.iew.iewDispSquashedInsts               16                       # Number of squashed instructions skipped by dispatch
system.cpu0.iew.iewDispLoadInsts              9561266                       # Number of dispatched load instructions
system.cpu0.iew.iewDispStoreInsts             2099721                       # Number of dispatched store instructions
system.cpu0.iew.iewDispNonSpecInsts                 2                       # Number of dispatched non-speculative instructions
system.cpu0.iew.iewIQFullEvents                104160                       # Number of times the IQ has become full, causing a stall
system.cpu0.iew.iewLSQFullEvents                    0                       # Number of times the LSQ has become full, causing a stall
system.cpu0.iew.memOrderViolationEvents           103                       # Number of memory order violations
system.cpu0.iew.predictedTakenIncorrect         71148                       # Number of branches that were predicted taken incorrectly
system.cpu0.iew.predictedNotTakenIncorrect        53212                       # Number of branches that were predicted not taken incorrectly
system.cpu0.iew.branchMispredicts              124360                       # Number of branch mispredicts detected at execute
system.cpu0.iew.iewExecutedInsts             70503370                       # Number of executed instructions
system.cpu0.iew.iewExecLoadInsts              8909755                       # Number of load instructions executed
system.cpu0.iew.iewExecSquashedInsts           245336                       # Number of squashed instructions skipped in execute
system.cpu0.iew.exec_swp                            0                       # number of swp insts executed
system.cpu0.iew.exec_nop                            0                       # number of nop insts executed
system.cpu0.iew.exec_refs                    11001127                       # number of memory reference insts executed
system.cpu0.iew.exec_branches                 4704041                       # Number of branches executed
system.cpu0.iew.exec_stores                   2091372                       # Number of stores executed
system.cpu0.iew.exec_rate                    2.308960                       # Inst execution rate
system.cpu0.iew.wb_sent                      70489993                       # cumulative count of insts sent to commit
system.cpu0.iew.wb_count                     70473879                       # cumulative count of insts written-back
system.cpu0.iew.wb_producers                 52506125                       # num instructions producing a value
system.cpu0.iew.wb_consumers                 92338906                       # num instructions consuming a value
system.cpu0.iew.wb_rate                      2.307994                       # insts written-back per cycle
system.cpu0.iew.wb_fanout                    0.568624                       # average fanout of values written-back
system.cpu0.commit.commitSquashedInsts       10905447                       # The number of squashed insts skipped by commit
system.cpu0.commit.branchMispredicts           121607                       # The number of times a branch was mispredicted
system.cpu0.commit.committed_per_cycle::samples     29132924                       # Number of insts commited each cycle
system.cpu0.commit.committed_per_cycle::mean     2.254821                       # Number of insts commited each cycle
system.cpu0.commit.committed_per_cycle::stdev     2.862110                       # Number of insts commited each cycle
system.cpu0.commit.committed_per_cycle::underflows            0      0.00%      0.00% # Number of insts commited each cycle
system.cpu0.commit.committed_per_cycle::0     10941284     37.56%     37.56% # Number of insts commited each cycle
system.cpu0.commit.committed_per_cycle::1      7492295     25.72%     63.27% # Number of insts commited each cycle
system.cpu0.commit.committed_per_cycle::2      1057954      3.63%     66.91% # Number of insts commited each cycle
system.cpu0.commit.committed_per_cycle::3      2897508      9.95%     76.85% # Number of insts commited each cycle
system.cpu0.commit.committed_per_cycle::4      1137066      3.90%     80.75% # Number of insts commited each cycle
system.cpu0.commit.committed_per_cycle::5       216431      0.74%     81.50% # Number of insts commited each cycle
system.cpu0.commit.committed_per_cycle::6       422847      1.45%     82.95% # Number of insts commited each cycle
system.cpu0.commit.committed_per_cycle::7       518997      1.78%     84.73% # Number of insts commited each cycle
system.cpu0.commit.committed_per_cycle::8      4448542     15.27%    100.00% # Number of insts commited each cycle
system.cpu0.commit.committed_per_cycle::overflows            0      0.00%    100.00% # Number of insts commited each cycle
system.cpu0.commit.committed_per_cycle::min_value            0                       # Number of insts commited each cycle
system.cpu0.commit.committed_per_cycle::max_value            8                       # Number of insts commited each cycle
system.cpu0.commit.committed_per_cycle::total     29132924                       # Number of insts commited each cycle
system.cpu0.commit.committedInsts            36994059                       # Number of instructions committed
system.cpu0.commit.committedOps              65689543                       # Number of ops (including micro ops) committed
system.cpu0.commit.swp_count                        0                       # Number of s/w prefetches committed
system.cpu0.commit.refs                      10180796                       # Number of memory references committed
system.cpu0.commit.loads                      8090711                       # Number of loads committed
system.cpu0.commit.membars                          0                       # Number of memory barriers committed
system.cpu0.commit.branches                   4593770                       # Number of branches committed
system.cpu0.commit.vec_insts                        0                       # Number of committed Vector instructions.
system.cpu0.commit.fp_insts                  33962041                       # Number of committed floating point instructions.
system.cpu0.commit.int_insts                 40786677                       # Number of committed integer instructions.
system.cpu0.commit.function_calls              624909                       # Number of function calls committed.
system.cpu0.commit.op_class_0::No_OpClass         5967      0.01%      0.01% # Class of committed instruction
system.cpu0.commit.op_class_0::IntAlu        34147383     51.98%     51.99% # Class of committed instruction
system.cpu0.commit.op_class_0::IntMult              0      0.00%     51.99% # Class of committed instruction
system.cpu0.commit.op_class_0::IntDiv               0      0.00%     51.99% # Class of committed instruction
system.cpu0.commit.op_class_0::FloatAdd      21355397     32.51%     84.50% # Class of committed instruction
system.cpu0.commit.op_class_0::FloatCmp             0      0.00%     84.50% # Class of committed instruction
system.cpu0.commit.op_class_0::FloatCvt             0      0.00%     84.50% # Class of committed instruction
system.cpu0.commit.op_class_0::FloatMult            0      0.00%     84.50% # Class of committed instruction
system.cpu0.commit.op_class_0::FloatMultAcc            0      0.00%     84.50% # Class of committed instruction
system.cpu0.commit.op_class_0::FloatDiv             0      0.00%     84.50% # Class of committed instruction
system.cpu0.commit.op_class_0::FloatMisc            0      0.00%     84.50% # Class of committed instruction
system.cpu0.commit.op_class_0::FloatSqrt            0      0.00%     84.50% # Class of committed instruction
system.cpu0.commit.op_class_0::SimdAdd              0      0.00%     84.50% # Class of committed instruction
system.cpu0.commit.op_class_0::SimdAddAcc            0      0.00%     84.50% # Class of committed instruction
system.cpu0.commit.op_class_0::SimdAlu              0      0.00%     84.50% # Class of committed instruction
system.cpu0.commit.op_class_0::SimdCmp              0      0.00%     84.50% # Class of committed instruction
system.cpu0.commit.op_class_0::SimdCvt              0      0.00%     84.50% # Class of committed instruction
system.cpu0.commit.op_class_0::SimdMisc             0      0.00%     84.50% # Class of committed instruction
system.cpu0.commit.op_class_0::SimdMult             0      0.00%     84.50% # Class of committed instruction
system.cpu0.commit.op_class_0::SimdMultAcc            0      0.00%     84.50% # Class of committed instruction
system.cpu0.commit.op_class_0::SimdShift            0      0.00%     84.50% # Class of committed instruction
system.cpu0.commit.op_class_0::SimdShiftAcc            0      0.00%     84.50% # Class of committed instruction
system.cpu0.commit.op_class_0::SimdSqrt             0      0.00%     84.50% # Class of committed instruction
system.cpu0.commit.op_class_0::SimdFloatAdd            0      0.00%     84.50% # Class of committed instruction
system.cpu0.commit.op_class_0::SimdFloatAlu            0      0.00%     84.50% # Class of committed instruction
system.cpu0.commit.op_class_0::SimdFloatCmp            0      0.00%     84.50% # Class of committed instruction
system.cpu0.commit.op_class_0::SimdFloatCvt            0      0.00%     84.50% # Class of committed instruction
system.cpu0.commit.op_class_0::SimdFloatDiv            0      0.00%     84.50% # Class of committed instruction
system.cpu0.commit.op_class_0::SimdFloatMisc            0      0.00%     84.50% # Class of committed instruction
system.cpu0.commit.op_class_0::SimdFloatMult            0      0.00%     84.50% # Class of committed instruction
system.cpu0.commit.op_class_0::SimdFloatMultAcc            0      0.00%     84.50% # Class of committed instruction
system.cpu0.commit.op_class_0::SimdFloatSqrt            0      0.00%     84.50% # Class of committed instruction
system.cpu0.commit.op_class_0::MemRead        1941806      2.96%     87.46% # Class of committed instruction
system.cpu0.commit.op_class_0::MemWrite       1465174      2.23%     89.69% # Class of committed instruction
system.cpu0.commit.op_class_0::FloatMemRead      6148905      9.36%     99.05% # Class of committed instruction
system.cpu0.commit.op_class_0::FloatMemWrite       624911      0.95%    100.00% # Class of committed instruction
system.cpu0.commit.op_class_0::IprAccess            0      0.00%    100.00% # Class of committed instruction
system.cpu0.commit.op_class_0::InstPrefetch            0      0.00%    100.00% # Class of committed instruction
system.cpu0.commit.op_class_0::total         65689543                       # Class of committed instruction
system.cpu0.commit.bw_lim_events              4448542                       # number cycles where commit BW limit reached
system.cpu0.rob.rob_reads                   101279372                       # The number of ROB reads
system.cpu0.rob.rob_writes                  154591722                       # The number of ROB writes
system.cpu0.committedInsts                   36994059                       # Number of Instructions Simulated
system.cpu0.committedOps                     65689543                       # Number of Ops (including micro ops) Simulated
system.cpu0.cpi                              0.825394                       # CPI: Cycles Per Instruction
system.cpu0.cpi_total                        0.825394                       # CPI: Total CPI of All Threads
system.cpu0.ipc                              1.211542                       # IPC: Instructions Per Cycle
system.cpu0.ipc_total                        1.211542                       # IPC: Total IPC of All Threads
system.cpu0.int_regfile_reads                56138839                       # number of integer regfile reads
system.cpu0.int_regfile_writes               28562118                       # number of integer regfile writes
system.cpu0.fp_regfile_reads                 64630688                       # number of floating regfile reads
system.cpu0.fp_regfile_writes                33238302                       # number of floating regfile writes
system.cpu0.cc_regfile_reads                 20541185                       # number of cc regfile reads
system.cpu0.cc_regfile_writes                13380874                       # number of cc regfile writes
system.cpu0.misc_regfile_reads               24135892                       # number of misc regfile reads
system.cpu0.dcache.tags.pwrStateResidencyTicks::UNDEFINED  15267344125                       # Cumulative time (in ticks) in various power states
system.cpu0.dcache.tags.replacements            14219                       # number of replacements
system.cpu0.dcache.tags.tagsinuse                1024                       # Cycle average of tags in use
system.cpu0.dcache.tags.total_refs            1084211                       # Total number of references to valid blocks.
system.cpu0.dcache.tags.sampled_refs            14219                       # Sample count of references to valid blocks.
system.cpu0.dcache.tags.avg_refs            76.250862                       # Average number of references to valid blocks.
system.cpu0.dcache.tags.warmup_cycle                0                       # Cycle when the warmup percentage was hit.
system.cpu0.dcache.tags.occ_blocks::cpu0.data         1024                       # Average occupied blocks per requestor
system.cpu0.dcache.tags.occ_percent::cpu0.data            1                       # Average percentage of cache occupancy
system.cpu0.dcache.tags.occ_percent::total            1                       # Average percentage of cache occupancy
system.cpu0.dcache.tags.occ_task_id_blocks::1024         1024                       # Occupied blocks per task id
system.cpu0.dcache.tags.age_task_id_blocks_1024::0            9                       # Occupied blocks per task id
system.cpu0.dcache.tags.age_task_id_blocks_1024::1           85                       # Occupied blocks per task id
system.cpu0.dcache.tags.age_task_id_blocks_1024::2          706                       # Occupied blocks per task id
system.cpu0.dcache.tags.age_task_id_blocks_1024::3            4                       # Occupied blocks per task id
system.cpu0.dcache.tags.age_task_id_blocks_1024::4          220                       # Occupied blocks per task id
system.cpu0.dcache.tags.occ_task_id_percent::1024            1                       # Percentage of cache occupancy per task id
system.cpu0.dcache.tags.tag_accesses         42400315                       # Number of tag accesses
system.cpu0.dcache.tags.data_accesses        42400315                       # Number of data accesses
system.cpu0.dcache.pwrStateResidencyTicks::UNDEFINED  15267344125                       # Cumulative time (in ticks) in various power states
system.cpu0.dcache.ReadReq_hits::cpu0.data      8492137                       # number of ReadReq hits
system.cpu0.dcache.ReadReq_hits::total        8492137                       # number of ReadReq hits
system.cpu0.dcache.WriteReq_hits::cpu0.data      2090086                       # number of WriteReq hits
system.cpu0.dcache.WriteReq_hits::total       2090086                       # number of WriteReq hits
system.cpu0.dcache.demand_hits::cpu0.data     10582223                       # number of demand (read+write) hits
system.cpu0.dcache.demand_hits::total        10582223                       # number of demand (read+write) hits
system.cpu0.dcache.overall_hits::cpu0.data     10582223                       # number of overall hits
system.cpu0.dcache.overall_hits::total       10582223                       # number of overall hits
system.cpu0.dcache.ReadReq_misses::cpu0.data        14301                       # number of ReadReq misses
system.cpu0.dcache.ReadReq_misses::total        14301                       # number of ReadReq misses
system.cpu0.dcache.demand_misses::cpu0.data        14301                       # number of demand (read+write) misses
system.cpu0.dcache.demand_misses::total         14301                       # number of demand (read+write) misses
system.cpu0.dcache.overall_misses::cpu0.data        14301                       # number of overall misses
system.cpu0.dcache.overall_misses::total        14301                       # number of overall misses
system.cpu0.dcache.ReadReq_miss_latency::cpu0.data   1398721000                       # number of ReadReq miss cycles
system.cpu0.dcache.ReadReq_miss_latency::total   1398721000                       # number of ReadReq miss cycles
system.cpu0.dcache.demand_miss_latency::cpu0.data   1398721000                       # number of demand (read+write) miss cycles
system.cpu0.dcache.demand_miss_latency::total   1398721000                       # number of demand (read+write) miss cycles
system.cpu0.dcache.overall_miss_latency::cpu0.data   1398721000                       # number of overall miss cycles
system.cpu0.dcache.overall_miss_latency::total   1398721000                       # number of overall miss cycles
system.cpu0.dcache.ReadReq_accesses::cpu0.data      8506438                       # number of ReadReq accesses(hits+misses)
system.cpu0.dcache.ReadReq_accesses::total      8506438                       # number of ReadReq accesses(hits+misses)
system.cpu0.dcache.WriteReq_accesses::cpu0.data      2090086                       # number of WriteReq accesses(hits+misses)
system.cpu0.dcache.WriteReq_accesses::total      2090086                       # number of WriteReq accesses(hits+misses)
system.cpu0.dcache.demand_accesses::cpu0.data     10596524                       # number of demand (read+write) accesses
system.cpu0.dcache.demand_accesses::total     10596524                       # number of demand (read+write) accesses
system.cpu0.dcache.overall_accesses::cpu0.data     10596524                       # number of overall (read+write) accesses
system.cpu0.dcache.overall_accesses::total     10596524                       # number of overall (read+write) accesses
system.cpu0.dcache.ReadReq_miss_rate::cpu0.data     0.001681                       # miss rate for ReadReq accesses
system.cpu0.dcache.ReadReq_miss_rate::total     0.001681                       # miss rate for ReadReq accesses
system.cpu0.dcache.demand_miss_rate::cpu0.data     0.001350                       # miss rate for demand accesses
system.cpu0.dcache.demand_miss_rate::total     0.001350                       # miss rate for demand accesses
system.cpu0.dcache.overall_miss_rate::cpu0.data     0.001350                       # miss rate for overall accesses
system.cpu0.dcache.overall_miss_rate::total     0.001350                       # miss rate for overall accesses
system.cpu0.dcache.ReadReq_avg_miss_latency::cpu0.data 97805.817775                       # average ReadReq miss latency
system.cpu0.dcache.ReadReq_avg_miss_latency::total 97805.817775                       # average ReadReq miss latency
system.cpu0.dcache.demand_avg_miss_latency::cpu0.data 97805.817775                       # average overall miss latency
system.cpu0.dcache.demand_avg_miss_latency::total 97805.817775                       # average overall miss latency
system.cpu0.dcache.overall_avg_miss_latency::cpu0.data 97805.817775                       # average overall miss latency
system.cpu0.dcache.overall_avg_miss_latency::total 97805.817775                       # average overall miss latency
system.cpu0.dcache.blocked_cycles::no_mshrs            0                       # number of cycles access was blocked
system.cpu0.dcache.blocked_cycles::no_targets            0                       # number of cycles access was blocked
system.cpu0.dcache.blocked::no_mshrs                0                       # number of cycles access was blocked
system.cpu0.dcache.blocked::no_targets              0                       # number of cycles access was blocked
system.cpu0.dcache.avg_blocked_cycles::no_mshrs          nan                       # average number of cycles each access was blocked
system.cpu0.dcache.avg_blocked_cycles::no_targets          nan                       # average number of cycles each access was blocked
system.cpu0.dcache.writebacks::writebacks        13391                       # number of writebacks
system.cpu0.dcache.writebacks::total            13391                       # number of writebacks
system.cpu0.dcache.ReadReq_mshr_hits::cpu0.data           82                       # number of ReadReq MSHR hits
system.cpu0.dcache.ReadReq_mshr_hits::total           82                       # number of ReadReq MSHR hits
system.cpu0.dcache.demand_mshr_hits::cpu0.data           82                       # number of demand (read+write) MSHR hits
system.cpu0.dcache.demand_mshr_hits::total           82                       # number of demand (read+write) MSHR hits
system.cpu0.dcache.overall_mshr_hits::cpu0.data           82                       # number of overall MSHR hits
system.cpu0.dcache.overall_mshr_hits::total           82                       # number of overall MSHR hits
system.cpu0.dcache.ReadReq_mshr_misses::cpu0.data        14219                       # number of ReadReq MSHR misses
system.cpu0.dcache.ReadReq_mshr_misses::total        14219                       # number of ReadReq MSHR misses
[...]
system.cpu1.itb_walker_cache.avg_blocked_cycles::no_mshrs          nan                       # average number of cycles each access was blocked
system.cpu1.itb_walker_cache.avg_blocked_cycles::no_targets          nan                       # average number of cycles each access was blocked
system.l2.tags.pwrStateResidencyTicks::UNDEFINED  15267344125                       # Cumulative time (in ticks) in various power states
system.l2.tags.replacements                     14195                       # number of replacements
system.l2.tags.tagsinuse                        16384                       # Cycle average of tags in use
system.l2.tags.total_refs                       14199                       # Total number of references to valid blocks.
system.l2.tags.sampled_refs                     14195                       # Sample count of references to valid blocks.
system.l2.tags.avg_refs                      1.000282                       # Average number of references to valid blocks.
system.l2.tags.warmup_cycle                         0                       # Cycle when the warmup percentage was hit.
system.l2.tags.occ_blocks::cpu0.data            16384                       # Average occupied blocks per requestor
system.l2.tags.occ_percent::cpu0.data               1                       # Average percentage of cache occupancy
system.l2.tags.occ_percent::total                   1                       # Average percentage of cache occupancy
system.l2.tags.occ_task_id_blocks::1024         16384                       # Occupied blocks per task id
system.l2.tags.age_task_id_blocks_1024::0            9                       # Occupied blocks per task id
system.l2.tags.age_task_id_blocks_1024::1           85                       # Occupied blocks per task id
system.l2.tags.age_task_id_blocks_1024::2          831                       # Occupied blocks per task id
system.l2.tags.age_task_id_blocks_1024::3         8360                       # Occupied blocks per task id
system.l2.tags.age_task_id_blocks_1024::4         7099                       # Occupied blocks per task id
system.l2.tags.occ_task_id_percent::1024            1                       # Percentage of cache occupancy per task id
system.l2.tags.tag_accesses                    241699                       # Number of tag accesses
system.l2.tags.data_accesses                   241699                       # Number of data accesses
system.l2.pwrStateResidencyTicks::UNDEFINED  15267344125                       # Cumulative time (in ticks) in various power states
system.l2.WritebackDirty_hits::writebacks        13391                       # number of WritebackDirty hits
system.l2.WritebackDirty_hits::total            13391                       # number of WritebackDirty hits
system.l2.ReadSharedReq_hits::cpu0.data            24                       # number of ReadSharedReq hits
system.l2.ReadSharedReq_hits::total                24                       # number of ReadSharedReq hits
system.l2.demand_hits::cpu0.data                   24                       # number of demand (read+write) hits
system.l2.demand_hits::total                       24                       # number of demand (read+write) hits
system.l2.overall_hits::cpu0.data                  24                       # number of overall hits
system.l2.overall_hits::total                      24                       # number of overall hits
system.l2.ReadSharedReq_misses::cpu0.data        14195                       # number of ReadSharedReq misses
system.l2.ReadSharedReq_misses::total           14195                       # number of ReadSharedReq misses
system.l2.demand_misses::cpu0.data              14195                       # number of demand (read+write) misses
system.l2.demand_misses::total                  14195                       # number of demand (read+write) misses
system.l2.overall_misses::cpu0.data             14195                       # number of overall misses
system.l2.overall_misses::total                 14195                       # number of overall misses
system.l2.ReadSharedReq_miss_latency::cpu0.data   1353698000                       # number of ReadSharedReq miss cycles
system.l2.ReadSharedReq_miss_latency::total   1353698000                       # number of ReadSharedReq miss cycles
system.l2.demand_miss_latency::cpu0.data   1353698000                       # number of demand (read+write) miss cycles
system.l2.demand_miss_latency::total       1353698000                       # number of demand (read+write) miss cycles
system.l2.overall_miss_latency::cpu0.data   1353698000                       # number of overall miss cycles
system.l2.overall_miss_latency::total      1353698000                       # number of overall miss cycles
system.l2.WritebackDirty_accesses::writebacks        13391                       # number of WritebackDirty accesses(hits+misses)
system.l2.WritebackDirty_accesses::total        13391                       # number of WritebackDirty accesses(hits+misses)
system.l2.ReadSharedReq_accesses::cpu0.data        14219                       # number of ReadSharedReq accesses(hits+misses)
system.l2.ReadSharedReq_accesses::total         14219                       # number of ReadSharedReq accesses(hits+misses)
system.l2.demand_accesses::cpu0.data            14219                       # number of demand (read+write) accesses
system.l2.demand_accesses::total                14219                       # number of demand (read+write) accesses
system.l2.overall_accesses::cpu0.data           14219                       # number of overall (read+write) accesses
system.l2.overall_accesses::total               14219                       # number of overall (read+write) accesses
system.l2.ReadSharedReq_miss_rate::cpu0.data     0.998312                       # miss rate for ReadSharedReq accesses
system.l2.ReadSharedReq_miss_rate::total     0.998312                       # miss rate for ReadSharedReq accesses
system.l2.demand_miss_rate::cpu0.data        0.998312                       # miss rate for demand accesses
system.l2.demand_miss_rate::total            0.998312                       # miss rate for demand accesses
system.l2.overall_miss_rate::cpu0.data       0.998312                       # miss rate for overall accesses
system.l2.overall_miss_rate::total           0.998312                       # miss rate for overall accesses
system.l2.ReadSharedReq_avg_miss_latency::cpu0.data 95364.424093                       # average ReadSharedReq miss latency
system.l2.ReadSharedReq_avg_miss_latency::total 95364.424093                       # average ReadSharedReq miss latency
system.l2.demand_avg_miss_latency::cpu0.data 95364.424093                       # average overall miss latency
system.l2.demand_avg_miss_latency::total 95364.424093                       # average overall miss latency
system.l2.overall_avg_miss_latency::cpu0.data 95364.424093                       # average overall miss latency
system.l2.overall_avg_miss_latency::total 95364.424093                       # average overall miss latency
system.l2.blocked_cycles::no_mshrs                  0                       # number of cycles access was blocked
system.l2.blocked_cycles::no_targets                0                       # number of cycles access was blocked
system.l2.blocked::no_mshrs                         0                       # number of cycles access was blocked
system.l2.blocked::no_targets                       0                       # number of cycles access was blocked
system.l2.avg_blocked_cycles::no_mshrs            nan                       # average number of cycles each access was blocked
system.l2.avg_blocked_cycles::no_targets          nan                       # average number of cycles each access was blocked
system.l2.writebacks::writebacks                13478                       # number of writebacks
system.l2.writebacks::total                     13478                       # number of writebacks
system.l2.CleanEvict_mshr_misses::writebacks            1                       # number of CleanEvict MSHR misses
system.l2.CleanEvict_mshr_misses::total             1                       # number of CleanEvict MSHR misses
system.l2.ReadSharedReq_mshr_misses::cpu0.data        14195                       # number of ReadSharedReq MSHR misses
system.l2.ReadSharedReq_mshr_misses::total        14195                       # number of ReadSharedReq MSHR misses
system.l2.demand_mshr_misses::cpu0.data         14195                       # number of demand (read+write) MSHR misses
system.l2.demand_mshr_misses::total             14195                       # number of demand (read+write) MSHR misses
system.l2.overall_mshr_misses::cpu0.data        14195                       # number of overall MSHR misses
system.l2.overall_mshr_misses::total            14195                       # number of overall MSHR misses
system.l2.ReadSharedReq_mshr_miss_latency::cpu0.data   1211748000                       # number of ReadSharedReq MSHR miss cycles
system.l2.ReadSharedReq_mshr_miss_latency::total   1211748000                       # number of ReadSharedReq MSHR miss cycles
system.l2.demand_mshr_miss_latency::cpu0.data   1211748000                       # number of demand (read+write) MSHR miss cycles
system.l2.demand_mshr_miss_latency::total   1211748000                       # number of demand (read+write) MSHR miss cycles
system.l2.overall_mshr_miss_latency::cpu0.data   1211748000                       # number of overall MSHR miss cycles
system.l2.overall_mshr_miss_latency::total   1211748000                       # number of overall MSHR miss cycles
system.l2.CleanEvict_mshr_miss_rate::writebacks          inf                       # mshr miss rate for CleanEvict accesses
system.l2.CleanEvict_mshr_miss_rate::total          inf                       # mshr miss rate for CleanEvict accesses
system.l2.ReadSharedReq_mshr_miss_rate::cpu0.data     0.998312                       # mshr miss rate for ReadSharedReq accesses
system.l2.ReadSharedReq_mshr_miss_rate::total     0.998312                       # mshr miss rate for ReadSharedReq accesses
system.l2.demand_mshr_miss_rate::cpu0.data     0.998312                       # mshr miss rate for demand accesses
system.l2.demand_mshr_miss_rate::total       0.998312                       # mshr miss rate for demand accesses
system.l2.overall_mshr_miss_rate::cpu0.data     0.998312                       # mshr miss rate for overall accesses
system.l2.overall_mshr_miss_rate::total      0.998312                       # mshr miss rate for overall accesses
system.l2.ReadSharedReq_avg_mshr_miss_latency::cpu0.data 85364.424093                       # average ReadSharedReq mshr miss latency
system.l2.ReadSharedReq_avg_mshr_miss_latency::total 85364.424093                       # average ReadSharedReq mshr miss latency
system.l2.demand_avg_mshr_miss_latency::cpu0.data 85364.424093                       # average overall mshr miss latency
system.l2.demand_avg_mshr_miss_latency::total 85364.424093                       # average overall mshr miss latency
system.l2.overall_avg_mshr_miss_latency::cpu0.data 85364.424093                       # average overall mshr miss latency
system.l2.overall_avg_mshr_miss_latency::total 85364.424093                       # average overall mshr miss latency
system.membus.snoop_filter.tot_requests         28391                       # Total number of requests made to the snoop filter.
system.membus.snoop_filter.hit_single_requests        14196                       # Number of requests hitting in the snoop filter with a single holder of the requested data.
system.membus.snoop_filter.hit_multi_requests            0                       # Number of requests hitting in the snoop filter with multiple (>1) holders of the requested data.
system.membus.snoop_filter.tot_snoops               0                       # Total number of snoops made to the snoop filter.
system.membus.snoop_filter.hit_single_snoops            0                       # Number of snoops hitting in the snoop filter with a single holder of the requested data.
system.membus.snoop_filter.hit_multi_snoops            0                       # Number of snoops hitting in the snoop filter with multiple (>1) holders of the requested data.
system.membus.pwrStateResidencyTicks::UNDEFINED  15267344125                       # Cumulative time (in ticks) in various power states
system.membus.trans_dist::ReadResp              14195                       # Transaction distribution
system.membus.trans_dist::WritebackDirty        13478                       # Transaction distribution
system.membus.trans_dist::CleanEvict              718                       # Transaction distribution
system.membus.trans_dist::ReadSharedReq         14195                       # Transaction distribution
system.membus.pkt_count_system.l2.mem_side::system.mem_ctrls.port        42586                       # Packet count per connected master and slave (bytes)
system.membus.pkt_count_system.l2.mem_side::total        42586                       # Packet count per connected master and slave (bytes)
system.membus.pkt_count::total                  42586                       # Packet count per connected master and slave (bytes)
system.membus.pkt_size_system.l2.mem_side::system.mem_ctrls.port      1771072                       # Cumulative packet size per connected master and slave (bytes)
system.membus.pkt_size_system.l2.mem_side::total      1771072                       # Cumulative packet size per connected master and slave (bytes)
system.membus.pkt_size::total                 1771072                       # Cumulative packet size per connected master and slave (bytes)
system.membus.snoops                                0                       # Total snoops (count)
system.membus.snoopTraffic                          0                       # Total snoop traffic (bytes)
system.membus.snoop_fanout::samples             14195                       # Request fanout histogram
system.membus.snoop_fanout::mean                    0                       # Request fanout histogram
system.membus.snoop_fanout::stdev                   0                       # Request fanout histogram
system.membus.snoop_fanout::underflows              0      0.00%      0.00% # Request fanout histogram
system.membus.snoop_fanout::0                   14195    100.00%    100.00% # Request fanout histogram
system.membus.snoop_fanout::1                       0      0.00%    100.00% # Request fanout histogram
system.membus.snoop_fanout::overflows               0      0.00%    100.00% # Request fanout histogram
system.membus.snoop_fanout::min_value               0                       # Request fanout histogram
system.membus.snoop_fanout::max_value               0                       # Request fanout histogram
system.membus.snoop_fanout::total               14195                       # Request fanout histogram
system.membus.reqLayer4.occupancy            85887500                       # Layer occupancy (ticks)
system.membus.reqLayer4.utilization               0.6                       # Layer utilization (%)
system.membus.respLayer1.occupancy           75608500                       # Layer occupancy (ticks)
system.membus.respLayer1.utilization              0.5                       # Layer utilization (%)
system.tol2bus.snoop_filter.tot_requests        28438                       # Total number of requests made to the snoop filter.
system.tol2bus.snoop_filter.hit_single_requests        14219                       # Number of requests hitting in the snoop filter with a single holder of the requested data.
system.tol2bus.snoop_filter.hit_multi_requests            0                       # Number of requests hitting in the snoop filter with multiple (>1) holders of the requested data.
system.tol2bus.snoop_filter.tot_snoops              0                       # Total number of snoops made to the snoop filter.
system.tol2bus.snoop_filter.hit_single_snoops            0                       # Number of snoops hitting in the snoop filter with a single holder of the requested data.
system.tol2bus.snoop_filter.hit_multi_snoops            0                       # Number of snoops hitting in the snoop filter with multiple (>1) holders of the requested data.
system.tol2bus.pwrStateResidencyTicks::UNDEFINED  15267344125                       # Cumulative time (in ticks) in various power states
system.tol2bus.trans_dist::ReadResp             14219                       # Transaction distribution
system.tol2bus.trans_dist::WritebackDirty        26869                       # Transaction distribution
system.tol2bus.trans_dist::CleanEvict            1545                       # Transaction distribution
system.tol2bus.trans_dist::ReadSharedReq        14219                       # Transaction distribution
system.tol2bus.pkt_count_system.cpu0.dcache.mem_side::system.l2.cpu_side        42657                       # Packet count per connected master and slave (bytes)
system.tol2bus.pkt_count::total                 42657                       # Packet count per connected master and slave (bytes)
system.tol2bus.pkt_size_system.cpu0.dcache.mem_side::system.l2.cpu_side      1767040                       # Cumulative packet size per connected master and slave (bytes)
system.tol2bus.pkt_size::total                1767040                       # Cumulative packet size per connected master and slave (bytes)
system.tol2bus.snoops                           14195                       # Total snoops (count)
system.tol2bus.snoopTraffic                    862592                       # Total snoop traffic (bytes)
system.tol2bus.snoop_fanout::samples            28414                       # Request fanout histogram
system.tol2bus.snoop_fanout::mean                   0                       # Request fanout histogram
system.tol2bus.snoop_fanout::stdev                  0                       # Request fanout histogram
system.tol2bus.snoop_fanout::underflows             0      0.00%      0.00% # Request fanout histogram
system.tol2bus.snoop_fanout::0                  28414    100.00%    100.00% # Request fanout histogram
system.tol2bus.snoop_fanout::1                      0      0.00%    100.00% # Request fanout histogram
system.tol2bus.snoop_fanout::2                      0      0.00%    100.00% # Request fanout histogram
system.tol2bus.snoop_fanout::3                      0      0.00%    100.00% # Request fanout histogram
system.tol2bus.snoop_fanout::4                      0      0.00%    100.00% # Request fanout histogram
system.tol2bus.snoop_fanout::5                      0      0.00%    100.00% # Request fanout histogram
system.tol2bus.snoop_fanout::6                      0      0.00%    100.00% # Request fanout histogram
system.tol2bus.snoop_fanout::7                      0      0.00%    100.00% # Request fanout histogram
system.tol2bus.snoop_fanout::8                      0      0.00%    100.00% # Request fanout histogram
system.tol2bus.snoop_fanout::overflows              0      0.00%    100.00% # Request fanout histogram
system.tol2bus.snoop_fanout::min_value              0                       # Request fanout histogram
system.tol2bus.snoop_fanout::max_value              0                       # Request fanout histogram
system.tol2bus.snoop_fanout::total              28414                       # Request fanout histogram
system.tol2bus.reqLayer0.occupancy           27610000                       # Layer occupancy (ticks)
system.tol2bus.reqLayer0.utilization              0.2                       # Layer utilization (%)
system.tol2bus.respLayer1.occupancy          21328500                       # Layer occupancy (ticks)
system.tol2bus.respLayer1.utilization             0.1                       # Layer utilization (%)

---------- End Simulation Statistics   ----------
