
---------- Begin Simulation Statistics ----------
sim_seconds                                  0.015267                       # Number of seconds simulated
sim_ticks                                 15267344125                       # Number of ticks simulated
final_tick                               10717675575750                       # Number of ticks from beginning of simulation (restored from checkpoints and never reset)
sim_freq                                 1000000000000                       # Frequency of simulated ticks
host_inst_rate                               57685698                       # Simulator instruction rate (inst/s)
host_op_rate                                107878117                       # Simulator op (including micro ops) rate (op/s)
host_tick_rate                              140576187                       # Simulator tick rate (ticks/s)
host_mem_usage                                1248976                       # Number of bytes of host memory used
host_seconds                                   108.61                       # Real time elapsed on the host
sim_insts                                  6264981047                       # Number of instructions simulated
sim_ops                                   11716153017                       # Number of ops (including micro ops) simulated
system.voltage_domain.voltage                       1                       # Voltage in Volts
system.clk_domain.clock                          1000                       # Clock period in ticks
system.mem_ctrls.pwrStateResidencyTicks::UNDEFINED  15267344125                       # Cumulative time (in ticks) in various power states
system.mem_ctrls.bytes_read::cpu0.inst          20544                       # Number of bytes read from this memory
system.mem_ctrls.bytes_read::cpu0.data        9977792                       # Number of bytes read from this memory
system.mem_ctrls.bytes_read::total            9998336                       # Number of bytes read from this memory
system.mem_ctrls.bytes_inst_read::cpu0.inst        20544                       # Number of instructions bytes read from this memory
system.mem_ctrls.bytes_inst_read::total         20544                       # Number of instructions bytes read from this memory
system.mem_ctrls.bytes_written::writebacks      9882816                       # Number of bytes written to this memory
system.mem_ctrls.bytes_written::total         9882816                       # Number of bytes written to this memory
system.mem_ctrls.num_reads::cpu0.inst             321                       # Number of read requests responded to by this memory
system.mem_ctrls.num_reads::cpu0.data          155903                       # Number of read requests responded to by this memory
system.mem_ctrls.num_reads::total              156224                       # Number of read requests responded to by this memory
system.mem_ctrls.num_writes::writebacks        154419                       # Number of write requests responded to by this memory
system.mem_ctrls.num_writes::total             154419                       # Number of write requests responded to by this memory
system.mem_ctrls.bw_read::cpu0.inst           1345617                       # Total read bandwidth from this memory (bytes/s)
system.mem_ctrls.bw_read::cpu0.data         653538161                       # Total read bandwidth from this memory (bytes/s)
system.mem_ctrls.bw_read::total             654883778                       # Total read bandwidth from this memory (bytes/s)
system.mem_ctrls.bw_inst_read::cpu0.inst      1345617                       # Instruction read bandwidth from this memory (bytes/s)
system.mem_ctrls.bw_inst_read::total          1345617                       # Instruction read bandwidth from this memory (bytes/s)
system.mem_ctrls.bw_write::writebacks       647317301                       # Write bandwidth from this memory (bytes/s)
system.mem_ctrls.bw_write::total            647317301                       # Write bandwidth from this memory (bytes/s)
system.mem_ctrls.bw_total::writebacks       647317301                       # Total bandwidth to/from this memory (bytes/s)
system.mem_ctrls.bw_total::cpu0.inst          1345617                       # Total bandwidth to/from this memory (bytes/s)
system.mem_ctrls.bw_total::cpu0.data        653538161                       # Total bandwidth to/from this memory (bytes/s)
system.mem_ctrls.bw_total::total           1302201079                       # Total bandwidth to/from this memory (bytes/s)
system.mem_ctrls.readReqs                      156224                       # Number of read requests accepted
system.mem_ctrls.writeReqs                     154419                       # Number of write requests accepted
system.mem_ctrls.readBursts                    156224                       # Number of DRAM read bursts, including those serviced by the write queue
system.mem_ctrls.writeBursts                   154419                       # Number of DRAM write bursts, including those merged in the write queue
system.mem_ctrls.bytesReadDRAM                9998336                       # Total number of bytes read from DRAM
system.mem_ctrls.bytesReadWrQ                       0                       # Total number of bytes read from write queue
system.mem_ctrls.bytesWritten                 9882752                       # Total number of bytes written to DRAM
system.mem_ctrls.bytesReadSys                 9998336                       # Total read bytes from the system interface side
system.mem_ctrls.bytesWrittenSys              9882816                       # Total written bytes from the system interface side
system.mem_ctrls.servicedByWrQ                      0                       # Number of DRAM read bursts serviced by the write queue
system.mem_ctrls.mergedWrBursts                     0                       # Number of DRAM write bursts merged with an existing one
system.mem_ctrls.neitherReadNorWriteReqs            0                       # Number of requests that are neither read nor write
system.mem_ctrls.perBankRdBursts::0             10018                       # Per bank write bursts
system.mem_ctrls.perBankRdBursts::1             10156                       # Per bank write bursts
system.mem_ctrls.perBankRdBursts::2             10128                       # Per bank write bursts
system.mem_ctrls.perBankRdBursts::3             10069                       # Per bank write bursts
system.mem_ctrls.perBankRdBursts::4              9749                       # Per bank write bursts
system.mem_ctrls.perBankRdBursts::5              9365                       # Per bank write bursts
system.mem_ctrls.perBankRdBursts::6              9599                       # Per bank write bursts
system.mem_ctrls.perBankRdBursts::7              9599                       # Per bank write bursts
system.mem_ctrls.perBankRdBursts::8              9544                       # Per bank write bursts
system.mem_ctrls.perBankRdBursts::9              9585                       # Per bank write bursts
system.mem_ctrls.perBankRdBursts::10             9891                       # Per bank write bursts
system.mem_ctrls.perBankRdBursts::11             9691                       # Per bank write bursts
system.mem_ctrls.perBankRdBursts::12             9442                       # Per bank write bursts
system.mem_ctrls.perBankRdBursts::13             9529                       # Per bank write bursts
system.mem_ctrls.perBankRdBursts::14             9916                       # Per bank write bursts
system.mem_ctrls.perBankRdBursts::15             9943                       # Per bank write bursts
system.mem_ctrls.perBankWrBursts::0              9887                       # Per bank write bursts
system.mem_ctrls.perBankWrBursts::1             10116                       # Per bank write bursts
system.mem_ctrls.perBankWrBursts::2              9852                       # Per bank write bursts
system.mem_ctrls.perBankWrBursts::3              9979                       # Per bank write bursts
system.mem_ctrls.perBankWrBursts::4              9621                       # Per bank write bursts
system.mem_ctrls.perBankWrBursts::5              9337                       # Per bank write bursts
system.mem_ctrls.perBankWrBursts::6              9433                       # Per bank write bursts
system.mem_ctrls.perBankWrBursts::7              9303                       # Per bank write bursts
system.mem_ctrls.perBankWrBursts::8              9344                       # Per bank write bursts
system.mem_ctrls.perBankWrBursts::9              9560                       # Per bank write bursts
system.mem_ctrls.perBankWrBursts::10             9832                       # Per bank write bursts
system.mem_ctrls.perBankWrBursts::11             9665                       # Per bank write bursts
system.mem_ctrls.perBankWrBursts::12             9288                       # Per bank write bursts
system.mem_ctrls.perBankWrBursts::13             9479                       # Per bank write bursts
system.mem_ctrls.perBankWrBursts::14             9841                       # Per bank write bursts
system.mem_ctrls.perBankWrBursts::15             9881                       # Per bank write bursts
system.mem_ctrls.numRdRetry                         0                       # Number of times read queue was full causing retry
system.mem_ctrls.numWrRetry                         0                       # Number of times write queue was full causing retry
system.mem_ctrls.totGap                   15267361000                       # Total gap between requests
system.mem_ctrls.readPktSize::0                     0                       # Read request sizes (log2)
system.mem_ctrls.readPktSize::1                     0                       # Read request sizes (log2)
system.mem_ctrls.readPktSize::2                     0                       # Read request sizes (log2)
system.mem_ctrls.readPktSize::3                     0                       # Read request sizes (log2)
system.mem_ctrls.readPktSize::4                     0                       # Read request sizes (log2)
system.mem_ctrls.readPktSize::5                     0                       # Read request sizes (log2)
system.mem_ctrls.readPktSize::6                156224                       # Read request sizes (log2)
system.mem_ctrls.writePktSize::0                    0                       # Write request sizes (log2)
system.mem_ctrls.writePktSize::1                    0                       # Write request sizes (log2)
system.mem_ctrls.writePktSize::2                    0                       # Write request sizes (log2)
system.mem_ctrls.writePktSize::3                    0                       # Write request sizes (log2)
system.mem_ctrls.writePktSize::4                    0                       # Write request sizes (log2)
system.mem_ctrls.writePktSize::5                    0                       # Write request sizes (log2)
system.mem_ctrls.writePktSize::6               154419                       # Write request sizes (log2)
system.mem_ctrls.rdQLenPdf::0                  155297                       # What read queue length does an incoming req see
system.mem_ctrls.rdQLenPdf::1                     582                       # What read queue length does an incoming req see
system.mem_ctrls.rdQLenPdf::2                     222                       # What read queue length does an incoming req see
system.mem_ctrls.rdQLenPdf::3                     101                       # What read queue length does an incoming req see
system.mem_ctrls.rdQLenPdf::4                      20                       # What read queue length does an incoming req see
system.mem_ctrls.rdQLenPdf::5                       2                       # What read queue length does an incoming req see
system.mem_ctrls.rdQLenPdf::6                       0                       # What read queue length does an incoming req see
system.mem_ctrls.rdQLenPdf::7                       0                       # What read queue length does an incoming req see
system.mem_ctrls.rdQLenPdf::8                       0                       # What read queue length does an incoming req see
system.mem_ctrls.rdQLenPdf::9                       0                       # What read queue length does an incoming req see
system.mem_ctrls.rdQLenPdf::10                      0                       # What read queue length does an incoming req see
system.mem_ctrls.rdQLenPdf::11                      0                       # What read queue length does an incoming req see
system.mem_ctrls.rdQLenPdf::12                      0                       # What read queue length does an incoming req see
system.mem_ctrls.rdQLenPdf::13                      0                       # What read queue length does an incoming req see
system.mem_ctrls.rdQLenPdf::14                      0                       # What read queue length does an incoming req see
system.mem_ctrls.rdQLenPdf::15                      0                       # What read queue length does an incoming req see
system.mem_ctrls.rdQLenPdf::16                      0                       # What read queue length does an incoming req see
system.mem_ctrls.rdQLenPdf::17                      0                       # What read queue length does an incoming req see
system.mem_ctrls.rdQLenPdf::18                      0                       # What read queue length does an incoming req see
system.mem_ctrls.rdQLenPdf::19                      0                       # What read queue length does an incoming req see
system.mem_ctrls.rdQLenPdf::20                      0                       # What read queue length does an incoming req see
system.mem_ctrls.rdQLenPdf::21                      0                       # What read queue length does an incoming req see
system.mem_ctrls.rdQLenPdf::22                      0                       # What read queue length does an incoming req see
system.mem_ctrls.rdQLenPdf::23                      0                       # What read queue length does an incoming req see
system.mem_ctrls.rdQLenPdf::24                      0                       # What read queue length does an incoming req see
system.mem_ctrls.rdQLenPdf::25                      0                       # What read queue length does an incoming req see
system.mem_ctrls.rdQLenPdf::26                      0                       # What read queue length does an incoming req see
system.mem_ctrls.rdQLenPdf::27                      0                       # What read queue length does an incoming req see
system.mem_ctrls.rdQLenPdf::28                      0                       # What read queue length does an incoming req see
system.mem_ctrls.rdQLenPdf::29                      0                       # What read queue length does an incoming req see
system.mem_ctrls.rdQLenPdf::30                      0                       # What read queue length does an incoming req see
system.mem_ctrls.rdQLenPdf::31                      0                       # What read queue length does an incoming req see
system.mem_ctrls.wrQLenPdf::0                       0                       # What write queue length does an incoming req see
system.mem_ctrls.wrQLenPdf::1                       0                       # What write queue length does an incoming req see
system.mem_ctrls.wrQLenPdf::2                       0                       # What write queue length does an incoming req see
system.mem_ctrls.wrQLenPdf::3                       0                       # What write queue length does an incoming req see
system.mem_ctrls.wrQLenPdf::4                       0                       # What write queue length does an incoming req see
system.mem_ctrls.wrQLenPdf::5                       0                       # What write queue length does an incoming req see
system.mem_ctrls.wrQLenPdf::6                       0                       # What write queue length does an incoming req see
system.mem_ctrls.wrQLenPdf::7                       0                       # What write queue length does an incoming req see
system.mem_ctrls.wrQLenPdf::8                       0                       # What write queue length does an incoming req see
system.mem_ctrls.wrQLenPdf::9                       0                       # What write queue length does an incoming req see
system.mem_ctrls.wrQLenPdf::10                      0                       # What write queue length does an incoming req see
system.mem_ctrls.wrQLenPdf::11                      0                       # What write queue length does an incoming req see
system.mem_ctrls.wrQLenPdf::12                      0                       # What write queue length does an incoming req see
system.mem_ctrls.wrQLenPdf::13                      0                       # What write queue length does an incoming req see
system.mem_ctrls.wrQLenPdf::14                      0                       # What write queue length does an incoming req see
system.mem_ctrls.wrQLenPdf::15                     15                       # What write queue length does an incoming req see
system.mem_ctrls.wrQLenPdf::16                     16                       # What write queue length does an incoming req see
system.mem_ctrls.wrQLenPdf::17                   9544                       # What write queue length does an incoming req see
system.mem_ctrls.wrQLenPdf::18                   9594                       # What write queue length does an incoming req see
system.mem_ctrls.wrQLenPdf::19                   9620                       # What write queue length does an incoming req see
system.mem_ctrls.wrQLenPdf::20                   9641                       # What write queue length does an incoming req see
system.mem_ctrls.wrQLenPdf::21                   9642                       # What write queue length does an incoming req see
system.mem_ctrls.wrQLenPdf::22                   9649                       # What write queue length does an incoming req see
system.mem_ctrls.wrQLenPdf::23                   9664                       # What write queue length does an incoming req see
system.mem_ctrls.wrQLenPdf::24                   9668                       # What write queue length does an incoming req see
system.mem_ctrls.wrQLenPdf::25                   9670                       # What write queue length does an incoming req see
system.mem_ctrls.wrQLenPdf::26                   9665                       # What write queue length does an incoming req see
system.mem_ctrls.wrQLenPdf::27                   9660                       # What write queue length does an incoming req see
system.mem_ctrls.wrQLenPdf::28                   9666                       # What write queue length does an incoming req see
system.mem_ctrls.wrQLenPdf::29                   9680                       # What write queue length does an incoming req see
system.mem_ctrls.wrQLenPdf::30                   9686                       # What write queue length does an incoming req see
system.mem_ctrls.wrQLenPdf::31                   9668                       # What write queue length does an incoming req see
system.mem_ctrls.wrQLenPdf::32                   9657                       # What write queue length does an incoming req see
system.mem_ctrls.wrQLenPdf::33                      4                       # What write queue length does an incoming req see
system.mem_ctrls.wrQLenPdf::34                      2                       # What write queue length does an incoming req see
system.mem_ctrls.wrQLenPdf::35                      2                       # What write queue length does an incoming req see
system.mem_ctrls.wrQLenPdf::36                      2                       # What write queue length does an incoming req see
system.mem_ctrls.wrQLenPdf::37                      1                       # What write queue length does an incoming req see
system.mem_ctrls.wrQLenPdf::38                      1                       # What write queue length does an incoming req see
system.mem_ctrls.wrQLenPdf::39                      1                       # What write queue length does an incoming req see
system.mem_ctrls.wrQLenPdf::40                      1                       # What write queue length does an incoming req see
system.mem_ctrls.wrQLenPdf::41                      0                       # What write queue length does an incoming req see
system.mem_ctrls.wrQLenPdf::42                      0                       # What write queue length does an incoming req see
system.mem_ctrls.wrQLenPdf::43                      0                       # What write queue length does an incoming req see
system.mem_ctrls.wrQLenPdf::44                      0                       # What write queue length does an incoming req see
system.mem_ctrls.wrQLenPdf::45                      0                       # What write queue length does an incoming req see
system.mem_ctrls.wrQLenPdf::46                      0                       # What write queue length does an incoming req see
system.mem_ctrls.wrQLenPdf::47                      0                       # What write queue length does an incoming req see
system.mem_ctrls.wrQLenPdf::48                      0                       # What write queue length does an incoming req see
system.mem_ctrls.wrQLenPdf::49                      0                       # What write queue length does an incoming req see
system.mem_ctrls.wrQLenPdf::50                      0                       # What write queue length does an incoming req see
system.mem_ctrls.wrQLenPdf::51                      0                       # What write queue length does an incoming req see
system.mem_ctrls.wrQLenPdf::52                      0                       # What write queue length does an incoming req see
system.mem_ctrls.wrQLenPdf::53                      0                       # What write queue length does an incoming req see
system.mem_ctrls.wrQLenPdf::54                      0                       # What write queue length does an incoming req see
system.mem_ctrls.wrQLenPdf::55                      0                       # What write queue length does an incoming req see
system.mem_ctrls.wrQLenPdf::56                      0                       # What write queue length does an incoming req see
system.mem_ctrls.wrQLenPdf::57                      0                       # What write queue length does an incoming req see
system.mem_ctrls.wrQLenPdf::58                      0                       # What write queue length does an incoming req see
system.mem_ctrls.wrQLenPdf::59                      0                       # What write queue length does an incoming req see
system.mem_ctrls.wrQLenPdf::60                      0                       # What write queue length does an incoming req see
system.mem_ctrls.wrQLenPdf::61                      0                       # What write queue length does an incoming req see
system.mem_ctrls.wrQLenPdf::62                      0                       # What write queue length does an incoming req see
system.mem_ctrls.wrQLenPdf::63                      0                       # What write queue length does an incoming req see
system.mem_ctrls.bytesPerActivate::samples        27372                       # Bytes accessed per row activation
system.mem_ctrls.bytesPerActivate::mean    726.322373                       # Bytes accessed per row activation
system.mem_ctrls.bytesPerActivate::gmean   572.690251                       # Bytes accessed per row activation
system.mem_ctrls.bytesPerActivate::stdev   355.304026                       # Bytes accessed per row activation
system.mem_ctrls.bytesPerActivate::0-127         1857      6.78%      6.78% # Bytes accessed per row activation
system.mem_ctrls.bytesPerActivate::128-255         2246      8.21%     14.99% # Bytes accessed per row activation
system.mem_ctrls.bytesPerActivate::256-383         2092      7.64%     22.63% # Bytes accessed per row activation
system.mem_ctrls.bytesPerActivate::384-511         1938      7.08%     29.71% # Bytes accessed per row activation
system.mem_ctrls.bytesPerActivate::512-639         1469      5.37%     35.08% # Bytes accessed per row activation
system.mem_ctrls.bytesPerActivate::640-767         1578      5.77%     40.84% # Bytes accessed per row activation
system.mem_ctrls.bytesPerActivate::768-895         1422      5.20%     46.04% # Bytes accessed per row activation
system.mem_ctrls.bytesPerActivate::896-1023         1265      4.62%     50.66% # Bytes accessed per row activation
system.mem_ctrls.bytesPerActivate::1024-1151        13505     49.34%    100.00% # Bytes accessed per row activation
system.mem_ctrls.bytesPerActivate::total        27372                       # Bytes accessed per row activation
system.mem_ctrls.rdPerTurnAround::samples         9647                       # Reads before turning the bus around for writes
system.mem_ctrls.rdPerTurnAround::mean      16.193946                       # Reads before turning the bus around for writes
system.mem_ctrls.rdPerTurnAround::gmean     16.126089                       # Reads before turning the bus around for writes
system.mem_ctrls.rdPerTurnAround::stdev      1.948437                       # Reads before turning the bus around for writes
system.mem_ctrls.rdPerTurnAround::4-7               7      0.07%      0.07% # Reads before turning the bus around for writes
system.mem_ctrls.rdPerTurnAround::8-11             44      0.46%      0.53% # Reads before turning the bus around for writes
system.mem_ctrls.rdPerTurnAround::12-15            81      0.84%      1.37% # Reads before turning the bus around for writes
system.mem_ctrls.rdPerTurnAround::16-19          9317     96.58%     97.95% # Reads before turning the bus around for writes
system.mem_ctrls.rdPerTurnAround::20-23           143      1.48%     99.43% # Reads before turning the bus around for writes
system.mem_ctrls.rdPerTurnAround::24-27            30      0.31%     99.74% # Reads before turning the bus around for writes
system.mem_ctrls.rdPerTurnAround::28-31             7      0.07%     99.81% # Reads before turning the bus around for writes
system.mem_ctrls.rdPerTurnAround::32-35             2      0.02%     99.83% # Reads before turning the bus around for writes
system.mem_ctrls.rdPerTurnAround::36-39             2      0.02%     99.85% # Reads before turning the bus around for writes
system.mem_ctrls.rdPerTurnAround::40-43             2      0.02%     99.88% # Reads before turning the bus around for writes
system.mem_ctrls.rdPerTurnAround::44-47             2      0.02%     99.90% # Reads before turning the bus around for writes
system.mem_ctrls.rdPerTurnAround::48-51             5      0.05%     99.95% # Reads before turning the bus around for writes
system.mem_ctrls.rdPerTurnAround::56-59             1      0.01%     99.96% # Reads before turning the bus around for writes
system.mem_ctrls.rdPerTurnAround::60-63             1      0.01%     99.97% # Reads before turning the bus around for writes
system.mem_ctrls.rdPerTurnAround::76-79             2      0.02%     99.99% # Reads before turning the bus around for writes
system.mem_ctrls.rdPerTurnAround::80-83             1      0.01%    100.00% # Reads before turning the bus around for writes
system.mem_ctrls.rdPerTurnAround::total          9647                       # Reads before turning the bus around for writes
system.mem_ctrls.wrPerTurnAround::samples         9647                       # Writes before turning the bus around for reads
system.mem_ctrls.wrPerTurnAround::mean      16.006842                       # Writes before turning the bus around for reads
system.mem_ctrls.wrPerTurnAround::gmean     16.006216                       # Writes before turning the bus around for reads
system.mem_ctrls.wrPerTurnAround::stdev      0.151552                       # Writes before turning the bus around for reads
system.mem_ctrls.wrPerTurnAround::16             9625     99.77%     99.77% # Writes before turning the bus around for reads
system.mem_ctrls.wrPerTurnAround::17                2      0.02%     99.79% # Writes before turning the bus around for reads
system.mem_ctrls.wrPerTurnAround::18                5      0.05%     99.84% # Writes before turning the bus around for reads
system.mem_ctrls.wrPerTurnAround::19                7      0.07%     99.92% # Writes before turning the bus around for reads
system.mem_ctrls.wrPerTurnAround::20                7      0.07%     99.99% # Writes before turning the bus around for reads
system.mem_ctrls.wrPerTurnAround::21                1      0.01%    100.00% # Writes before turning the bus around for reads
system.mem_ctrls.wrPerTurnAround::total          9647                       # Writes before turning the bus around for reads
system.mem_ctrls.totQLat                   2881246750                       # Total ticks spent queuing
system.mem_ctrls.totMemAccLat              5810446750                       # Total ticks spent from burst creation until serviced by the DRAM
system.mem_ctrls.totBusLat                  781120000                       # Total ticks spent in databus transfers
system.mem_ctrls.avgQLat                     18443.05                       # Average queueing delay per DRAM burst
system.mem_ctrls.avgBusLat                    5000.00                       # Average bus latency per DRAM burst
system.mem_ctrls.avgMemAccLat                37193.05                       # Average memory access latency per DRAM burst
system.mem_ctrls.avgRdBW                       654.88                       # Average DRAM read bandwidth in MiByte/s
system.mem_ctrls.avgWrBW                       647.31                       # Average achieved write bandwidth in MiByte/s
system.mem_ctrls.avgRdBWSys                    654.88                       # Average system read bandwidth in MiByte/s
system.mem_ctrls.avgWrBWSys                    647.32                       # Average system write bandwidth in MiByte/s
system.mem_ctrls.peakBW                      12800.00                       # Theoretical peak bandwidth in MiByte/s
system.mem_ctrls.busUtil                        10.17                       # Data bus utilization in percentage
system.mem_ctrls.busUtilRead                     5.12                       # Data bus utilization in percentage for reads
system.mem_ctrls.busUtilWrite                    5.06                       # Data bus utilization in percentage for writes
system.mem_ctrls.avgRdQLen                       1.01                       # Average read queue length when enqueuing
system.mem_ctrls.avgWrQLen                      26.17                       # Average write queue length when enqueuing
system.mem_ctrls.readRowHits                   142771                       # Number of row buffer hits during reads
system.mem_ctrls.writeRowHits                  140498                       # Number of row buffer hits during writes
system.mem_ctrls.readRowHitRate                 91.39                       # Row buffer hit rate for reads
system.mem_ctrls.writeRowHitRate                90.98                       # Row buffer hit rate for writes
system.mem_ctrls.avgGap                      49147.61                       # Average gap between requests
system.mem_ctrls.pageHitRate                    91.19                       # Row buffer hit rate, read and write combined
system.mem_ctrls_0.actEnergy                 98360640                       # Energy for activate commands per rank (pJ)
system.mem_ctrls_0.preEnergy                 52279920                       # Energy for precharge commands per rank (pJ)
system.mem_ctrls_0.readEnergy               561796620                       # Energy for read commands per rank (pJ)
system.mem_ctrls_0.writeEnergy              404696160                       # Energy for write commands per rank (pJ)
system.mem_ctrls_0.refreshEnergy         750475440.000000                       # Energy for refresh commands per rank (pJ)
system.mem_ctrls_0.actBackEnergy           1505162520                       # Energy for active background per rank (pJ)
system.mem_ctrls_0.preBackEnergy             61997280                       # Energy for precharge background per rank (pJ)
system.mem_ctrls_0.actPowerDownEnergy      2089838310                       # Energy for active power-down per rank (pJ)
system.mem_ctrls_0.prePowerDownEnergy       321892800                       # Energy for precharge power-down per rank (pJ)
system.mem_ctrls_0.selfRefreshEnergy       1579618140                       # Energy for self refresh per rank (pJ)
system.mem_ctrls_0.totalEnergy             7426117830                       # Total energy per rank (pJ)
system.mem_ctrls_0.averagePower            486.405348                       # Core power per rank (mW)
system.mem_ctrls_0.totalIdleTime          11766193875                       # Total Idle time Per DRAM Rank
system.mem_ctrls_0.memoryStateTime::IDLE     41688250                       # Time in different power states
system.mem_ctrls_0.memoryStateTime::REF     318048000                       # Time in different power states
system.mem_ctrls_0.memoryStateTime::SREF   6383854375                       # Time in different power states
system.mem_ctrls_0.memoryStateTime::PRE_PDN    838264000                       # Time in different power states
system.mem_ctrls_0.memoryStateTime::ACT    3102569750                       # Time in different power states
system.mem_ctrls_0.memoryStateTime::ACT_PDN   4582919750                       # Time in different power states
system.mem_ctrls_1.actEnergy                 97082580                       # Energy for activate commands per rank (pJ)
system.mem_ctrls_1.preEnergy                 51596820                       # Energy for precharge commands per rank (pJ)
system.mem_ctrls_1.readEnergy               553642740                       # Energy for read commands per rank (pJ)
system.mem_ctrls_1.writeEnergy              401365800                       # Energy for write commands per rank (pJ)
system.mem_ctrls_1.refreshEnergy         741870480.000000                       # Energy for refresh commands per rank (pJ)
system.mem_ctrls_1.actBackEnergy           1499456820                       # Energy for active background per rank (pJ)
system.mem_ctrls_1.preBackEnergy             67251840                       # Energy for precharge background per rank (pJ)
system.mem_ctrls_1.actPowerDownEnergy      2065065540                       # Energy for active power-down per rank (pJ)
system.mem_ctrls_1.prePowerDownEnergy       300574560                       # Energy for precharge power-down per rank (pJ)
system.mem_ctrls_1.selfRefreshEnergy       1605699240                       # Energy for self refresh per rank (pJ)
system.mem_ctrls_1.totalEnergy             7383798810                       # Total energy per rank (pJ)
system.mem_ctrls_1.averagePower            483.633483                       # Core power per rank (mW)
system.mem_ctrls_1.totalIdleTime          11803528375                       # Total Idle time Per DRAM Rank
system.mem_ctrls_1.memoryStateTime::IDLE     53105250                       # Time in different power states
system.mem_ctrls_1.memoryStateTime::REF     314432000                       # Time in different power states
system.mem_ctrls_1.memoryStateTime::SREF   6492103000                       # Time in different power states
system.mem_ctrls_1.memoryStateTime::PRE_PDN    782726750                       # Time in different power states
system.mem_ctrls_1.memoryStateTime::ACT    3096228500                       # Time in different power states
system.mem_ctrls_1.memoryStateTime::ACT_PDN   4528748625                       # Time in different power states
system.pwrStateResidencyTicks::UNDEFINED  15267344125                       # Cumulative time (in ticks) in various power states
system.cpu0.branchPred.lookups                1304531                       # Number of BP lookups
system.cpu0.branchPred.condPredicted          1304531                       # Number of conditional branches predicted
system.cpu0.branchPred.condIncorrect             6067                       # Number of conditional branches incorrect
system.cpu0.branchPred.BTBLookups             1296855                       # Number of BTB lookups
system.cpu0.branchPred.BTBHits                      0                       # Number of BTB hits
system.cpu0.branchPred.BTBCorrect                   0                       # Number of correct BTB predictions (this stat may not work properly.
system.cpu0.branchPred.BTBHitPct             0.000000                       # BTB Hit Percentage
system.cpu0.branchPred.usedRAS                   3367                       # Number of times the RAS was used to get a target.
system.cpu0.branchPred.RASInCorrect               715                       # Number of incorrect RAS predictions.
system.cpu0.branchPred.indirectLookups        1296855                       # Number of indirect predictor lookups.
system.cpu0.branchPred.indirectHits           1263893                       # Number of indirect target hits.
system.cpu0.branchPred.indirectMisses           32962                       # Number of indirect misses.
system.cpu0.branchPredindirectMispredicted         4278                       # Number of mispredicted indirect branches.
system.cpu_voltage_domain.voltage                   1                       # Voltage in Volts
system.cpu_clk_domain.clock                       500                       # Clock period in ticks
system.cpu0.dtb.walker.pwrStateResidencyTicks::UNDEFINED  15267344125                       # Cumulative time (in ticks) in various power states
system.cpu0.dtb.rdAccesses                     444375                       # TLB accesses on read requests
system.cpu0.dtb.wrAccesses                    1291573                       # TLB accesses on write requests
system.cpu0.dtb.rdMisses                          696                       # TLB misses on read requests
system.cpu0.dtb.wrMisses                         2600                       # TLB misses on write requests
system.cpu0.apic_clk_domain.clock                8000                       # Clock period in ticks
system.cpu0.interrupts.pwrStateResidencyTicks::UNDEFINED  15267344125                       # Cumulative time (in ticks) in various power states
system.cpu0.itb.walker.pwrStateResidencyTicks::UNDEFINED  15267344125                       # Cumulative time (in ticks) in various power states
system.cpu0.itb.rdAccesses                          0                       # TLB accesses on read requests
system.cpu0.itb.wrAccesses                      47396                       # TLB accesses on write requests
system.cpu0.itb.rdMisses                            0                       # TLB misses on read requests
system.cpu0.itb.wrMisses                          224                       # TLB misses on write requests
system.cpu0.workload.numSyscalls                   50                       # Number of system calls
system.cpu0.pwrStateResidencyTicks::ON    15267344125                       # Cumulative time (in ticks) in various power states
system.cpu0.numCycles                        30534688                       # number of cpu cycles simulated
system.cpu0.numWorkItemsStarted                     0                       # number of work items this cpu started
system.cpu0.numWorkItemsCompleted                   0                       # number of work items this cpu completed
system.cpu0.fetch.icacheStallCycles             70206                       # Number of cycles fetch is stalled on an Icache miss
system.cpu0.fetch.Insts                       5801505                       # Number of instructions fetch has processed
system.cpu0.fetch.Branches                    1304531                       # Number of branches that fetch encountered
system.cpu0.fetch.predictedBranches           1267260                       # Number of branches that fetch has predicted taken
system.cpu0.fetch.Cycles                     30429461                       # Number of cycles fetch has run and was not squashing or blocked
system.cpu0.fetch.SquashCycles                  12620                       # Number of cycles fetch has spent squashing
system.cpu0.fetch.TlbCycles                         3                       # Number of cycles fetch has spent waiting for tlb
system.cpu0.fetch.MiscStallCycles                 104                       # Number of cycles fetch has spent waiting on interrupts, or bad addresses, or out of MSHRs
system.cpu0.fetch.PendingTrapStallCycles         1074                       # Number of stall cycles due to pending traps
system.cpu0.fetch.CacheLines                    47260                       # Number of cache lines fetched
system.cpu0.fetch.IcacheSquashes                 1798                       # Number of outstanding Icache misses that were squashed
system.cpu0.fetch.rateDist::samples          30507158                       # Number of instructions fetched each cycle (Total)
system.cpu0.fetch.rateDist::mean             0.386625                       # Number of instructions fetched each cycle (Total)
system.cpu0.fetch.rateDist::stdev            1.652055                       # Number of instructions fetched each cycle (Total)
system.cpu0.fetch.rateDist::underflows              0      0.00%      0.00% # Number of instructions fetched each cycle (Total)
system.cpu0.fetch.rateDist::0                28731982     94.18%     94.18% # Number of instructions fetched each cycle (Total)
system.cpu0.fetch.rateDist::1                   51211      0.17%     94.35% # Number of instructions fetched each cycle (Total)
system.cpu0.fetch.rateDist::2                   54284      0.18%     94.53% # Number of instructions fetched each cycle (Total)
system.cpu0.fetch.rateDist::3                  303417      0.99%     95.52% # Number of instructions fetched each cycle (Total)
system.cpu0.fetch.rateDist::4                   32793      0.11%     95.63% # Number of instructions fetched each cycle (Total)
system.cpu0.fetch.rateDist::5                    8510      0.03%     95.66% # Number of instructions fetched each cycle (Total)
system.cpu0.fetch.rateDist::6                    8963      0.03%     95.69% # Number of instructions fetched each cycle (Total)
system.cpu0.fetch.rateDist::7                   30679      0.10%     95.79% # Number of instructions fetched each cycle (Total)
system.cpu0.fetch.rateDist::8                 1285319      4.21%    100.00% # Number of instructions fetched each cycle (Total)
system.cpu0.fetch.rateDist::overflows               0      0.00%    100.00% # Number of instructions fetched each cycle (Total)
system.cpu0.fetch.rateDist::min_value               0                       # Number of instructions fetched each cycle (Total)
system.cpu0.fetch.rateDist::max_value               8                       # Number of instructions fetched each cycle (Total)
system.cpu0.fetch.rateDist::total            30507158                       # Number of instructions fetched each cycle (Total)
system.cpu0.fetch.branchRate                 0.042723                       # Number of branch fetches per cycle
system.cpu0.fetch.rate                       0.189997                       # Number of inst fetches per cycle
system.cpu0.decode.IdleCycles                  404353                       # Number of cycles decode is idle
system.cpu0.decode.BlockedCycles             28617591                       # Number of cycles decode is blocked
system.cpu0.decode.RunCycles                   688701                       # Number of cycles decode is running
system.cpu0.decode.UnblockCycles               790203                       # Number of cycles decode is unblocking
system.cpu0.decode.SquashCycles                  6310                       # Number of cycles decode is squashing
system.cpu0.decode.DecodedInsts              11736601                       # Number of instructions handled by decode
system.cpu0.rename.SquashCycles                  6310                       # Number of cycles rename is squashing
system.cpu0.rename.IdleCycles                  687806                       # Number of cycles rename is idle
system.cpu0.rename.BlockCycles                 218912                       # Number of cycles rename is blocking
system.cpu0.rename.serializeStallCycles         13705                       # count of cycles rename stalled for serializing inst
system.cpu0.rename.RunCycles                  1194448                       # Number of cycles rename is running
system.cpu0.rename.UnblockCycles             28385977                       # Number of cycles rename is unblocking
system.cpu0.rename.RenamedInsts              11706010                       # Number of instructions processed by rename
system.cpu0.rename.ROBFullEvents                 1336                       # Number of times rename has blocked due to ROB full
system.cpu0.rename.IQFullEvents                 18067                       # Number of times rename has blocked due to IQ full
system.cpu0.rename.LQFullEvents                  4933                       # Number of times rename has blocked due to LQ full
system.cpu0.rename.SQFullEvents              28084945                       # Number of times rename has blocked due to SQ full
system.cpu0.rename.RenamedOperands           15034769                       # Number of destination operands rename has renamed
system.cpu0.rename.RenameLookups             24610933                       # Number of register rename lookups that rename has made
system.cpu0.rename.int_rename_lookups        13487647                       # Number of integer rename lookups
system.cpu0.rename.fp_rename_lookups           307019                       # Number of floating rename lookups
system.cpu0.rename.CommittedMaps             14790962                       # Number of HB maps that are committed
system.cpu0.rename.UndoneMaps                  243801                       # Number of HB maps that are undone due to squashing
system.cpu0.rename.serializingInsts               129                       # count of serializing insts renamed
system.cpu0.rename.tempSerializingInsts           133                       # count of temporary serializing insts renamed
system.cpu0.rename.skidInsts                  4844436                       # count of insts added to the skid buffer
system.cpu0.memDep0.insertedLoads              453642                       # Number of loads inserted to the mem dependence unit.
system.cpu0.memDep0.insertedStores            1298693                       # Number of stores inserted to the mem dependence unit.
system.cpu0.memDep0.conflictingLoads            20217                       # Number of conflicting loads.
system.cpu0.memDep0.conflictingStores           16646                       # Number of conflicting stores.
system.cpu0.iq.iqInstsAdded                  11649921                       # Number of instructions added to the IQ (excludes non-spec)
system.cpu0.iq.iqNonSpecInstsAdded                699                       # Number of non-speculative instructions added to the IQ
system.cpu0.iq.iqInstsIssued                 11594277                       # Number of instructions issued
system.cpu0.iq.iqSquashedInstsIssued             1702                       # Number of squashed instructions issued
system.cpu0.iq.iqSquashedInstsExamined         156995                       # Number of squashed instructions iterated over during squash; mainly for profiling
system.cpu0.iq.iqSquashedOperandsExamined       227675                       # Number of squashed operands that are examined and possibly removed from graph
system.cpu0.iq.iqSquashedNonSpecRemoved           589                       # Number of squashed non-spec instructions that were removed
system.cpu0.iq.issued_per_cycle::samples     30507158                       # Number of insts issued each cycle
system.cpu0.iq.issued_per_cycle::mean        0.380051                       # Number of insts issued each cycle
system.cpu0.iq.issued_per_cycle::stdev       1.273648                       # Number of insts issued each cycle
system.cpu0.iq.issued_per_cycle::underflows            0      0.00%      0.00% # Number of insts issued each cycle
system.cpu0.iq.issued_per_cycle::0           27397802     89.81%     89.81% # Number of insts issued each cycle
system.cpu0.iq.issued_per_cycle::1             489816      1.61%     91.41% # Number of insts issued each cycle
system.cpu0.iq.issued_per_cycle::2             544250      1.78%     93.20% # Number of insts issued each cycle
system.cpu0.iq.issued_per_cycle::3             353511      1.16%     94.36% # Number of insts issued each cycle
system.cpu0.iq.issued_per_cycle::4             302001      0.99%     95.35% # Number of insts issued each cycle
system.cpu0.iq.issued_per_cycle::5            1033605      3.39%     98.73% # Number of insts issued each cycle
system.cpu0.iq.issued_per_cycle::6             154326      0.51%     99.24% # Number of insts issued each cycle
system.cpu0.iq.issued_per_cycle::7             201333      0.66%     99.90% # Number of insts issued each cycle
system.cpu0.iq.issued_per_cycle::8              30514      0.10%    100.00% # Number of insts issued each cycle
system.cpu0.iq.issued_per_cycle::overflows            0      0.00%    100.00% # Number of insts issued each cycle
system.cpu0.iq.issued_per_cycle::min_value            0                       # Number of insts issued each cycle
system.cpu0.iq.issued_per_cycle::max_value            8                       # Number of insts issued each cycle
system.cpu0.iq.issued_per_cycle::total       30507158                       # Number of insts issued each cycle
system.cpu0.iq.fu_full::No_OpClass                  0      0.00%      0.00% # attempts to use FU when none available
system.cpu0.iq.fu_full::IntAlu                  96924     95.73%     95.73% # attempts to use FU when none available
system.cpu0.iq.fu_full::IntMult                     0      0.00%     95.73% # attempts to use FU when none available
system.cpu0.iq.fu_full::IntDiv                      0      0.00%     95.73% # attempts to use FU when none available
system.cpu0.iq.fu_full::FloatAdd                  425      0.42%     96.15% # attempts to use FU when none available
system.cpu0.iq.fu_full::FloatCmp                    0      0.00%     96.15% # attempts to use FU when none available
system.cpu0.iq.fu_full::FloatCvt                    0      0.00%     96.15% # attempts to use FU when none available
system.cpu0.iq.fu_full::FloatMult                   0      0.00%     96.15% # attempts to use FU when none available
system.cpu0.iq.fu_full::FloatMultAcc                0      0.00%     96.15% # attempts to use FU when none available
system.cpu0.iq.fu_full::FloatDiv                    0      0.00%     96.15% # attempts to use FU when none available
system.cpu0.iq.fu_full::FloatMisc                   0      0.00%     96.15% # attempts to use FU when none available
system.cpu0.iq.fu_full::FloatSqrt                   0      0.00%     96.15% # attempts to use FU when none available
system.cpu0.iq.fu_full::SimdAdd                     0      0.00%     96.15% # attempts to use FU when none available
system.cpu0.iq.fu_full::SimdAddAcc                  0      0.00%     96.15% # attempts to use FU when none available
system.cpu0.iq.fu_full::SimdAlu                     0      0.00%     96.15% # attempts to use FU when none available
system.cpu0.iq.fu_full::SimdCmp                     0      0.00%     96.15% # attempts to use FU when none available
system.cpu0.iq.fu_full::SimdCvt                     0      0.00%     96.15% # attempts to use FU when none available
system.cpu0.iq.fu_full::SimdMisc                    0      0.00%     96.15% # attempts to use FU when none available
system.cpu0.iq.fu_full::SimdMult                    0      0.00%     96.15% # attempts to use FU when none available
system.cpu0.iq.fu_full::SimdMultAcc                 0      0.00%     96.15% # attempts to use FU when none available
system.cpu0.iq.fu_full::SimdShift                   0      0.00%     96.15% # attempts to use FU when none available
system.cpu0.iq.fu_full::SimdShiftAcc                0      0.00%     96.15% # attempts to use FU when none available
system.cpu0.iq.fu_full::SimdSqrt                    0      0.00%     96.15% # attempts to use FU when none available
system.cpu0.iq.fu_full::SimdFloatAdd                0      0.00%     96.15% # attempts to use FU when none available
system.cpu0.iq.fu_full::SimdFloatAlu                0      0.00%     96.15% # attempts to use FU when none available
system.cpu0.iq.fu_full::SimdFloatCmp                0      0.00%     96.15% # attempts to use FU when none available
system.cpu0.iq.fu_full::SimdFloatCvt                0      0.00%     96.15% # attempts to use FU when none available
system.cpu0.iq.fu_full::SimdFloatDiv                0      0.00%     96.15% # attempts to use FU when none available
system.cpu0.iq.fu_full::SimdFloatMisc               0      0.00%     96.15% # attempts to use FU when none available
system.cpu0.iq.fu_full::SimdFloatMult               0      0.00%     96.15% # attempts to use FU when none available
system.cpu0.iq.fu_full::SimdFloatMultAcc            0      0.00%     96.15% # attempts to use FU when none available
system.cpu0.iq.fu_full::SimdFloatSqrt               0      0.00%     96.15% # attempts to use FU when none available
system.cpu0.iq.fu_full::MemRead                   810      0.80%     96.95% # attempts to use FU when none available
system.cpu0.iq.fu_full::MemWrite                  189      0.19%     97.13% # attempts to use FU when none available
system.cpu0.iq.fu_full::FloatMemRead             2724      2.69%     99.82% # attempts to use FU when none available
system.cpu0.iq.fu_full::FloatMemWrite             180      0.18%    100.00% # attempts to use FU when none available
system.cpu0.iq.fu_full::IprAccess                   0      0.00%    100.00% # attempts to use FU when none available
system.cpu0.iq.fu_full::InstPrefetch                0      0.00%    100.00% # attempts to use FU when none available
system.cpu0.iq.FU_type_0::No_OpClass             4061      0.04%      0.04% # Type of FU issued
system.cpu0.iq.FU_type_0::IntAlu              9766121     84.23%     84.27% # Type of FU issued
system.cpu0.iq.FU_type_0::IntMult                  81      0.00%     84.27% # Type of FU issued
system.cpu0.iq.FU_type_0::IntDiv                  278      0.00%     84.27% # Type of FU issued
system.cpu0.iq.FU_type_0::FloatAdd              83939      0.72%     84.99% # Type of FU issued
system.cpu0.iq.FU_type_0::FloatCmp                  0      0.00%     84.99% # Type of FU issued
system.cpu0.iq.FU_type_0::FloatCvt                  0      0.00%     84.99% # Type of FU issued
system.cpu0.iq.FU_type_0::FloatMult                 0      0.00%     84.99% # Type of FU issued
system.cpu0.iq.FU_type_0::FloatMultAcc              0      0.00%     84.99% # Type of FU issued
system.cpu0.iq.FU_type_0::FloatDiv                  0      0.00%     84.99% # Type of FU issued
system.cpu0.iq.FU_type_0::FloatMisc                 0      0.00%     84.99% # Type of FU issued
system.cpu0.iq.FU_type_0::FloatSqrt                 0      0.00%     84.99% # Type of FU issued
system.cpu0.iq.FU_type_0::SimdAdd                   0      0.00%     84.99% # Type of FU issued
system.cpu0.iq.FU_type_0::SimdAddAcc                0      0.00%     84.99% # Type of FU issued
system.cpu0.iq.FU_type_0::SimdAlu                   0      0.00%     84.99% # Type of FU issued
system.cpu0.iq.FU_type_0::SimdCmp                   0      0.00%     84.99% # Type of FU issued
system.cpu0.iq.FU_type_0::SimdCvt                   0      0.00%     84.99% # Type of FU issued
system.cpu0.iq.FU_type_0::SimdMisc                  0      0.00%     84.99% # Type of FU issued
system.cpu0.iq.FU_type_0::SimdMult                  0      0.00%     84.99% # Type of FU issued
system.cpu0.iq.FU_type_0::SimdMultAcc               0      0.00%     84.99% # Type of FU issued
system.cpu0.iq.FU_type_0::SimdShift                 0      0.00%     84.99% # Type of FU issued
system.cpu0.iq.FU_type_0::SimdShiftAcc              0      0.00%     84.99% # Type of FU issued
system.cpu0.iq.FU_type_0::SimdSqrt                  0      0.00%     84.99% # Type of FU issued
system.cpu0.iq.FU_type_0::SimdFloatAdd              0      0.00%     84.99% # Type of FU issued
system.cpu0.iq.FU_type_0::SimdFloatAlu              0      0.00%     84.99% # Type of FU issued
system.cpu0.iq.FU_type_0::SimdFloatCmp              0      0.00%     84.99% # Type of FU issued
system.cpu0.iq.FU_type_0::SimdFloatCvt              0      0.00%     84.99% # Type of FU issued
system.cpu0.iq.FU_type_0::SimdFloatDiv              0      0.00%     84.99% # Type of FU issued
system.cpu0.iq.FU_type_0::SimdFloatMisc             0      0.00%     84.99% # Type of FU issued
system.cpu0.iq.FU_type_0::SimdFloatMult             0      0.00%     84.99% # Type of FU issued
system.cpu0.iq.FU_type_0::SimdFloatMultAcc            0      0.00%     84.99% # Type of FU issued
system.cpu0.iq.FU_type_0::SimdFloatSqrt             0      0.00%     84.99% # Type of FU issued
system.cpu0.iq.FU_type_0::MemRead              400546      3.45%     88.45% # Type of FU issued
system.cpu0.iq.FU_type_0::MemWrite            1254685     10.82%     99.27% # Type of FU issued
system.cpu0.iq.FU_type_0::FloatMemRead          46393      0.40%     99.67% # Type of FU issued
system.cpu0.iq.FU_type_0::FloatMemWrite         38173      0.33%    100.00% # Type of FU issued
system.cpu0.iq.FU_type_0::IprAccess                 0      0.00%    100.00% # Type of FU issued
system.cpu0.iq.FU_type_0::InstPrefetch              0      0.00%    100.00% # Type of FU issued
system.cpu0.iq.FU_type_0::total              11594277                       # Type of FU issued
system.cpu0.iq.rate                          0.379708                       # Inst issue rate
system.cpu0.iq.fu_busy_cnt                     101252                       # FU busy when requested
system.cpu0.iq.fu_busy_rate                  0.008733                       # FU busy rate (busy events/executed inst)
system.cpu0.iq.int_inst_queue_reads          53422814                       # Number of integer instruction queue reads
system.cpu0.iq.int_inst_queue_writes         11601521                       # Number of integer instruction queue writes
system.cpu0.iq.int_inst_queue_wakeup_accesses     11388386                       # Number of integer instruction queue wakeup accesses
system.cpu0.iq.fp_inst_queue_reads             375852                       # Number of floating instruction queue reads
system.cpu0.iq.fp_inst_queue_writes            206280                       # Number of floating instruction queue writes
system.cpu0.iq.fp_inst_queue_wakeup_accesses       184278                       # Number of floating instruction queue wakeup accesses
system.cpu0.iq.vec_inst_queue_reads                 0                       # Number of vector instruction queue reads
system.cpu0.iq.vec_inst_queue_writes                0                       # Number of vector instruction queue writes
system.cpu0.iq.vec_inst_queue_wakeup_accesses            0                       # Number of vector instruction queue wakeup accesses
system.cpu0.iq.int_alu_accesses              11501919                       # Number of integer alu accesses
system.cpu0.iq.fp_alu_accesses                 189549                       # Number of floating point alu accesses
system.cpu0.iq.vec_alu_accesses                     0                       # Number of vector alu accesses
system.cpu0.iew.lsq.thread0.forwLoads            2059                       # Number of loads that had data forwarded from stores
system.cpu0.iew.lsq.thread0.invAddrLoads            0                       # Number of loads ignored due to an invalid address
system.cpu0.iew.lsq.thread0.squashedLoads        22006                       # Number of loads squashed
system.cpu0.iew.lsq.thread0.ignoredResponses           48                       # Number of memory responses ignored because the instruction is squashed
system.cpu0.iew.lsq.thread0.memOrderViolation          199                       # Number of memory ordering violations
system.cpu0.iew.lsq.thread0.squashedStores        11807                       # Number of stores squashed
system.cpu0.iew.lsq.thread0.invAddrSwpfs            0                       # Number of software prefetches ignored due to an invalid address
system.cpu0.iew.lsq.thread0.blockedLoads            0                       # Number of blocked loads due to partial load-store forwarding
system.cpu0.iew.lsq.thread0.rescheduledLoads           19                       # Number of loads that were rescheduled
system.cpu0.iew.lsq.thread0.cacheBlocked          662                       # Number of times an access to memory failed due to the cache being blocked
system.cpu0.iew.iewIdleCycles                       0                       # Number of cycles IEW is idle
system.cpu0.iew.iewSquashCycles                  6310                       # Number of cycles IEW is squashing
system.cpu0.iew.iewBlockCycles                  54103                       # Number of cycles IEW is blocking
system.cpu0.iew.iewUnblockCycles               132911                       # Number of cycles IEW is unblocking
system.cpu0.iew.iewDispatchedInsts           11650620                       # Number of instructions dispatched to IQ
system.cpu0.iew.iewDispSquashedInsts              771                       # Number of squashed instructions skipped by dispatch
system.cpu0.iew.iewDispLoadInsts               453642                       # Number of dispatched load instructions
system.cpu0.iew.iewDispStoreInsts             1298693                       # Number of dispatched store instructions
system.cpu0.iew.iewDispNonSpecInsts               312                       # Number of dispatched non-speculative instructions
system.cpu0.iew.iewIQFullEvents                   387                       # Number of times the IQ has become full, causing a stall
system.cpu0.iew.iewLSQFullEvents               132356                       # Number of times the LSQ has become full, causing a stall
system.cpu0.iew.memOrderViolationEvents           199                       # Number of memory order violations
system.cpu0.iew.predictedTakenIncorrect          1653                       # Number of branches that were predicted taken incorrectly
system.cpu0.iew.predictedNotTakenIncorrect         5926                       # Number of branches that were predicted not taken incorrectly
system.cpu0.iew.branchMispredicts                7579                       # Number of branch mispredicts detected at execute
system.cpu0.iew.iewExecutedInsts             11580027                       # Number of executed instructions
system.cpu0.iew.iewExecLoadInsts               444217                       # Number of load instructions executed
system.cpu0.iew.iewExecSquashedInsts            14250                       # Number of squashed instructions skipped in execute
system.cpu0.iew.exec_swp                            0                       # number of swp insts executed
system.cpu0.iew.exec_nop                            0                       # number of nop insts executed
system.cpu0.iew.exec_refs                     1735771                       # number of memory reference insts executed
system.cpu0.iew.exec_branches                 1280088                       # Number of branches executed
system.cpu0.iew.exec_stores                   1291554                       # Number of stores executed
system.cpu0.iew.exec_rate                    0.379242                       # Inst execution rate
system.cpu0.iew.wb_sent                      11575673                       # cumulative count of insts sent to commit
system.cpu0.iew.wb_count                     11572664                       # cumulative count of insts written-back
system.cpu0.iew.wb_producers                  8475194                       # num instructions producing a value
system.cpu0.iew.wb_consumers                 11716907                       # num instructions consuming a value
system.cpu0.iew.wb_rate                      0.379001                       # insts written-back per cycle
system.cpu0.iew.wb_fanout                    0.723330                       # average fanout of values written-back
system.cpu0.commit.commitSquashedInsts         157203                       # The number of squashed insts skipped by commit
system.cpu0.commit.commitNonSpecStalls            110                       # The number of times commit has been forced to stall to communicate backwards
system.cpu0.commit.branchMispredicts             6170                       # The number of times a branch was mispredicted
system.cpu0.commit.committed_per_cycle::samples     30482062                       # Number of insts commited each cycle
system.cpu0.commit.committed_per_cycle::mean     0.377062                       # Number of insts commited each cycle
system.cpu0.commit.committed_per_cycle::stdev     1.310659                       # Number of insts commited each cycle
system.cpu0.commit.committed_per_cycle::underflows            0      0.00%      0.00% # Number of insts commited each cycle
system.cpu0.commit.committed_per_cycle::0     27481860     90.16%     90.16% # Number of insts commited each cycle
system.cpu0.commit.committed_per_cycle::1       365057      1.20%     91.36% # Number of insts commited each cycle
system.cpu0.commit.committed_per_cycle::2       322227      1.06%     92.41% # Number of insts commited each cycle
system.cpu0.commit.committed_per_cycle::3      1126194      3.69%     96.11% # Number of insts commited each cycle
system.cpu0.commit.committed_per_cycle::4        63458      0.21%     96.31% # Number of insts commited each cycle
system.cpu0.commit.committed_per_cycle::5       637595      2.09%     98.41% # Number of insts commited each cycle
system.cpu0.commit.committed_per_cycle::6        96753      0.32%     98.72% # Number of insts commited each cycle
system.cpu0.commit.committed_per_cycle::7        28139      0.09%     98.82% # Number of insts commited each cycle
system.cpu0.commit.committed_per_cycle::8       360779      1.18%    100.00% # Number of insts commited each cycle
system.cpu0.commit.committed_per_cycle::overflows            0      0.00%    100.00% # Number of insts commited each cycle
system.cpu0.commit.committed_per_cycle::min_value            0                       # Number of insts commited each cycle
system.cpu0.commit.committed_per_cycle::max_value            8                       # Number of insts commited each cycle
system.cpu0.commit.committed_per_cycle::total     30482062                       # Number of insts commited each cycle
system.cpu0.commit.committedInsts             5632937                       # Number of instructions committed
system.cpu0.commit.committedOps              11493623                       # Number of ops (including micro ops) committed
system.cpu0.commit.swp_count                        0                       # Number of s/w prefetches committed
system.cpu0.commit.refs                       1718522                       # Number of memory references committed
system.cpu0.commit.loads                       431636                       # Number of loads committed
system.cpu0.commit.membars                         40                       # Number of memory barriers committed
system.cpu0.commit.branches                   1273970                       # Number of branches committed
system.cpu0.commit.vec_insts                        0                       # Number of committed Vector instructions.
system.cpu0.commit.fp_insts                    180780                       # Number of committed floating point instructions.
system.cpu0.commit.int_insts                 11396186                       # Number of committed integer instructions.
system.cpu0.commit.function_calls                1050                       # Number of function calls committed.
system.cpu0.commit.op_class_0::No_OpClass         2234      0.02%      0.02% # Class of committed instruction
system.cpu0.commit.op_class_0::IntAlu         9690582     84.31%     84.33% # Class of committed instruction
system.cpu0.commit.op_class_0::IntMult             66      0.00%     84.33% # Class of committed instruction
system.cpu0.commit.op_class_0::IntDiv             220      0.00%     84.33% # Class of committed instruction
system.cpu0.commit.op_class_0::FloatAdd         81999      0.71%     85.05% # Class of committed instruction
system.cpu0.commit.op_class_0::FloatCmp             0      0.00%     85.05% # Class of committed instruction
system.cpu0.commit.op_class_0::FloatCvt             0      0.00%     85.05% # Class of committed instruction
system.cpu0.commit.op_class_0::FloatMult            0      0.00%     85.05% # Class of committed instruction
system.cpu0.commit.op_class_0::FloatMultAcc            0      0.00%     85.05% # Class of committed instruction
system.cpu0.commit.op_class_0::FloatDiv             0      0.00%     85.05% # Class of committed instruction
system.cpu0.commit.op_class_0::FloatMisc            0      0.00%     85.05% # Class of committed instruction
system.cpu0.commit.op_class_0::FloatSqrt            0      0.00%     85.05% # Class of committed instruction
system.cpu0.commit.op_class_0::SimdAdd              0      0.00%     85.05% # Class of committed instruction
system.cpu0.commit.op_class_0::SimdAddAcc            0      0.00%     85.05% # Class of committed instruction
system.cpu0.commit.op_class_0::SimdAlu              0      0.00%     85.05% # Class of committed instruction
system.cpu0.commit.op_class_0::SimdCmp              0      0.00%     85.05% # Class of committed instruction
system.cpu0.commit.op_class_0::SimdCvt              0      0.00%     85.05% # Class of committed instruction
system.cpu0.commit.op_class_0::SimdMisc             0      0.00%     85.05% # Class of committed instruction
system.cpu0.commit.op_class_0::SimdMult             0      0.00%     85.05% # Class of committed instruction
system.cpu0.commit.op_class_0::SimdMultAcc            0      0.00%     85.05% # Class of committed instruction
system.cpu0.commit.op_class_0::SimdShift            0      0.00%     85.05% # Class of committed instruction
system.cpu0.commit.op_class_0::SimdShiftAcc            0      0.00%     85.05% # Class of committed instruction
system.cpu0.commit.op_class_0::SimdSqrt             0      0.00%     85.05% # Class of committed instruction
system.cpu0.commit.op_class_0::SimdFloatAdd            0      0.00%     85.05% # Class of committed instruction
system.cpu0.commit.op_class_0::SimdFloatAlu            0      0.00%     85.05% # Class of committed instruction
system.cpu0.commit.op_class_0::SimdFloatCmp            0      0.00%     85.05% # Class of committed instruction
system.cpu0.commit.op_class_0::SimdFloatCvt            0      0.00%     85.05% # Class of committed instruction
system.cpu0.commit.op_class_0::SimdFloatDiv            0      0.00%     85.05% # Class of committed instruction
system.cpu0.commit.op_class_0::SimdFloatMisc            0      0.00%     85.05% # Class of committed instruction
system.cpu0.commit.op_class_0::SimdFloatMult            0      0.00%     85.05% # Class of committed instruction
system.cpu0.commit.op_class_0::SimdFloatMultAcc            0      0.00%     85.05% # Class of committed instruction
system.cpu0.commit.op_class_0::SimdFloatSqrt            0      0.00%     85.05% # Class of committed instruction
system.cpu0.commit.op_class_0::MemRead         387451      3.37%     88.42% # Class of committed instruction
system.cpu0.commit.op_class_0::MemWrite       1249208     10.87%     99.29% # Class of committed instruction
system.cpu0.commit.op_class_0::FloatMemRead        44185      0.38%     99.67% # Class of committed instruction
system.cpu0.commit.op_class_0::FloatMemWrite        37678      0.33%    100.00% # Class of committed instruction
system.cpu0.commit.op_class_0::IprAccess            0      0.00%    100.00% # Class of committed instruction
system.cpu0.commit.op_class_0::InstPrefetch            0      0.00%    100.00% # Class of committed instruction
system.cpu0.commit.op_class_0::total         11493623                       # Class of committed instruction
system.cpu0.commit.bw_lim_events               360779                       # number cycles where commit BW limit reached
system.cpu0.rob.rob_reads                    41772109                       # The number of ROB reads
system.cpu0.rob.rob_writes                   23327185                       # The number of ROB writes
system.cpu0.timesIdled                            278                       # Number of times that the entire CPU went into an idle state and unscheduled itself
system.cpu0.idleCycles                          27530                       # Total number of cycles that the CPU has spent unscheduled due to idling
system.cpu0.committedInsts                    5632937                       # Number of Instructions Simulated
system.cpu0.committedOps                     11493623                       # Number of Ops (including micro ops) Simulated
system.cpu0.cpi                              5.420740                       # CPI: Cycles Per Instruction
system.cpu0.cpi_total                        5.420740                       # CPI: Total CPI of All Threads
system.cpu0.ipc                              0.184477                       # IPC: Instructions Per Cycle
system.cpu0.ipc_total                        0.184477                       # IPC: Total IPC of All Threads
system.cpu0.int_regfile_reads                13285758                       # number of integer regfile reads
system.cpu0.int_regfile_writes                8854445                       # number of integer regfile writes
system.cpu0.fp_regfile_reads                   286205                       # number of floating regfile reads
system.cpu0.fp_regfile_writes                  145428                       # number of floating regfile writes
system.cpu0.cc_regfile_reads                  6387156                       # number of cc regfile reads
system.cpu0.cc_regfile_writes                 5882278                       # number of cc regfile writes
system.cpu0.misc_regfile_reads                4302593                       # number of misc regfile reads
system.cpu0.dcache.tags.pwrStateResidencyTicks::UNDEFINED  15267344125                       # Cumulative time (in ticks) in various power states
system.cpu0.dcache.tags.replacements           155973                       # number of replacements
system.cpu0.dcache.tags.tagsinuse                1024                       # Cycle average of tags in use
system.cpu0.dcache.tags.total_refs            1617774                       # Total number of references to valid blocks.
system.cpu0.dcache.tags.sampled_refs           155973                       # Sample count of references to valid blocks.
system.cpu0.dcache.tags.avg_refs            10.372141                       # Average number of references to valid blocks.
system.cpu0.dcache.tags.warmup_cycle                0                       # Cycle when the warmup percentage was hit.
system.cpu0.dcache.tags.occ_blocks::cpu0.data         1024                       # Average occupied blocks per requestor
system.cpu0.dcache.tags.occ_percent::cpu0.data            1                       # Average percentage of cache occupancy
system.cpu0.dcache.tags.occ_percent::total            1                       # Average percentage of cache occupancy
system.cpu0.dcache.tags.occ_task_id_blocks::1024         1024                       # Occupied blocks per task id
system.cpu0.dcache.tags.age_task_id_blocks_1024::0          106                       # Occupied blocks per task id
system.cpu0.dcache.tags.age_task_id_blocks_1024::1          918                       # Occupied blocks per task id
system.cpu0.dcache.tags.occ_task_id_percent::1024            1                       # Percentage of cache occupancy per task id
system.cpu0.dcache.tags.tag_accesses          7068157                       # Number of tag accesses
system.cpu0.dcache.tags.data_accesses         7068157                       # Number of data accesses
system.cpu0.dcache.pwrStateResidencyTicks::UNDEFINED  15267344125                       # Cumulative time (in ticks) in various power states
system.cpu0.dcache.ReadReq_hits::cpu0.data       437504                       # number of ReadReq hits
system.cpu0.dcache.ReadReq_hits::total         437504                       # number of ReadReq hits
system.cpu0.dcache.WriteReq_hits::cpu0.data      1132225                       # number of WriteReq hits
system.cpu0.dcache.WriteReq_hits::total       1132225                       # number of WriteReq hits
system.cpu0.dcache.demand_hits::cpu0.data      1569729                       # number of demand (read+write) hits
system.cpu0.dcache.demand_hits::total         1569729                       # number of demand (read+write) hits
system.cpu0.dcache.overall_hits::cpu0.data      1569729                       # number of overall hits
system.cpu0.dcache.overall_hits::total        1569729                       # number of overall hits
system.cpu0.dcache.ReadReq_misses::cpu0.data         3646                       # number of ReadReq misses
system.cpu0.dcache.ReadReq_misses::total         3646                       # number of ReadReq misses
system.cpu0.dcache.WriteReq_misses::cpu0.data       154671                       # number of WriteReq misses
system.cpu0.dcache.WriteReq_misses::total       154671                       # number of WriteReq misses
system.cpu0.dcache.demand_misses::cpu0.data       158317                       # number of demand (read+write) misses
system.cpu0.dcache.demand_misses::total        158317                       # number of demand (read+write) misses
system.cpu0.dcache.overall_misses::cpu0.data       158317                       # number of overall misses
system.cpu0.dcache.overall_misses::total       158317                       # number of overall misses
system.cpu0.dcache.ReadReq_miss_latency::cpu0.data    337672500                       # number of ReadReq miss cycles
system.cpu0.dcache.ReadReq_miss_latency::total    337672500                       # number of ReadReq miss cycles
system.cpu0.dcache.WriteReq_miss_latency::cpu0.data  13959201997                       # number of WriteReq miss cycles
system.cpu0.dcache.WriteReq_miss_latency::total  13959201997                       # number of WriteReq miss cycles
system.cpu0.dcache.demand_miss_latency::cpu0.data  14296874497                       # number of demand (read+write) miss cycles
system.cpu0.dcache.demand_miss_latency::total  14296874497                       # number of demand (read+write) miss cycles
system.cpu0.dcache.overall_miss_latency::cpu0.data  14296874497                       # number of overall miss cycles
system.cpu0.dcache.overall_miss_latency::total  14296874497                       # number of overall miss cycles
system.cpu0.dcache.ReadReq_accesses::cpu0.data       441150                       # number of ReadReq accesses(hits+misses)
system.cpu0.dcache.ReadReq_accesses::total       441150                       # number of ReadReq accesses(hits+misses)
system.cpu0.dcache.WriteReq_accesses::cpu0.data      1286896                       # number of WriteReq accesses(hits+misses)
system.cpu0.dcache.WriteReq_accesses::total      1286896                       # number of WriteReq accesses(hits+misses)
system.cpu0.dcache.demand_accesses::cpu0.data      1728046                       # number of demand (read+write) accesses
[...]
system.l2.ReadSharedReq_accesses::total          1311                       # number of ReadSharedReq accesses(hits+misses)
system.l2.demand_accesses::cpu0.inst              613                       # number of demand (read+write) accesses
system.l2.demand_accesses::cpu0.data           155973                       # number of demand (read+write) accesses
system.l2.demand_accesses::total               156586                       # number of demand (read+write) accesses
system.l2.overall_accesses::cpu0.inst             613                       # number of overall (read+write) accesses
system.l2.overall_accesses::cpu0.data          155973                       # number of overall (read+write) accesses
system.l2.overall_accesses::total              156586                       # number of overall (read+write) accesses
system.l2.ReadExReq_miss_rate::cpu0.data     0.999838                       # miss rate for ReadExReq accesses
system.l2.ReadExReq_miss_rate::total         0.999838                       # miss rate for ReadExReq accesses
system.l2.ReadCleanReq_miss_rate::cpu0.inst     0.523654                       # miss rate for ReadCleanReq accesses
system.l2.ReadCleanReq_miss_rate::total      0.523654                       # miss rate for ReadCleanReq accesses
system.l2.ReadSharedReq_miss_rate::cpu0.data     0.965675                       # miss rate for ReadSharedReq accesses
system.l2.ReadSharedReq_miss_rate::total     0.965675                       # miss rate for ReadSharedReq accesses
system.l2.demand_miss_rate::cpu0.inst        0.523654                       # miss rate for demand accesses
system.l2.demand_miss_rate::cpu0.data        0.999551                       # miss rate for demand accesses
system.l2.demand_miss_rate::total            0.997688                       # miss rate for demand accesses
system.l2.overall_miss_rate::cpu0.inst       0.523654                       # miss rate for overall accesses
system.l2.overall_miss_rate::cpu0.data       0.999551                       # miss rate for overall accesses
system.l2.overall_miss_rate::total           0.997688                       # miss rate for overall accesses
system.l2.ReadExReq_avg_miss_latency::cpu0.data 87764.978627                       # average ReadExReq miss latency
system.l2.ReadExReq_avg_miss_latency::total 87764.978627                       # average ReadExReq miss latency
system.l2.ReadCleanReq_avg_miss_latency::cpu0.inst 107736.760125                       # average ReadCleanReq miss latency
system.l2.ReadCleanReq_avg_miss_latency::total 107736.760125                       # average ReadCleanReq miss latency
system.l2.ReadSharedReq_avg_miss_latency::cpu0.data 106919.036335                       # average ReadSharedReq miss latency
system.l2.ReadSharedReq_avg_miss_latency::total 106919.036335                       # average ReadSharedReq miss latency
system.l2.demand_avg_miss_latency::cpu0.inst 107736.760125                       # average overall miss latency
system.l2.demand_avg_miss_latency::cpu0.data 87920.517886                       # average overall miss latency
system.l2.demand_avg_miss_latency::total 87961.235150                       # average overall miss latency
system.l2.overall_avg_miss_latency::cpu0.inst 107736.760125                       # average overall miss latency
system.l2.overall_avg_miss_latency::cpu0.data 87920.517886                       # average overall miss latency
system.l2.overall_avg_miss_latency::total 87961.235150                       # average overall miss latency
system.l2.blocked_cycles::no_mshrs                  0                       # number of cycles access was blocked
system.l2.blocked_cycles::no_targets                0                       # number of cycles access was blocked
system.l2.blocked::no_mshrs                         0                       # number of cycles access was blocked
system.l2.blocked::no_targets                       0                       # number of cycles access was blocked
system.l2.avg_blocked_cycles::no_mshrs            nan                       # average number of cycles each access was blocked
system.l2.avg_blocked_cycles::no_targets          nan                       # average number of cycles each access was blocked
system.l2.writebacks::writebacks               154419                       # number of writebacks
system.l2.writebacks::total                    154419                       # number of writebacks
system.l2.ReadExReq_mshr_misses::cpu0.data       154637                       # number of ReadExReq MSHR misses
system.l2.ReadExReq_mshr_misses::total         154637                       # number of ReadExReq MSHR misses
system.l2.ReadCleanReq_mshr_misses::cpu0.inst          321                       # number of ReadCleanReq MSHR misses
system.l2.ReadCleanReq_mshr_misses::total          321                       # number of ReadCleanReq MSHR misses
system.l2.ReadSharedReq_mshr_misses::cpu0.data         1266                       # number of ReadSharedReq MSHR misses
system.l2.ReadSharedReq_mshr_misses::total         1266                       # number of ReadSharedReq MSHR misses
system.l2.demand_mshr_misses::cpu0.inst           321                       # number of demand (read+write) MSHR misses
system.l2.demand_mshr_misses::cpu0.data        155903                       # number of demand (read+write) MSHR misses
system.l2.demand_mshr_misses::total            156224                       # number of demand (read+write) MSHR misses
system.l2.overall_mshr_misses::cpu0.inst          321                       # number of overall MSHR misses
system.l2.overall_mshr_misses::cpu0.data       155903                       # number of overall MSHR misses
system.l2.overall_mshr_misses::total           156224                       # number of overall MSHR misses
system.l2.ReadExReq_mshr_miss_latency::cpu0.data  12025343000                       # number of ReadExReq MSHR miss cycles
system.l2.ReadExReq_mshr_miss_latency::total  12025343000                       # number of ReadExReq MSHR miss cycles
system.l2.ReadCleanReq_mshr_miss_latency::cpu0.inst     31373500                       # number of ReadCleanReq MSHR miss cycles
system.l2.ReadCleanReq_mshr_miss_latency::total     31373500                       # number of ReadCleanReq MSHR miss cycles
system.l2.ReadSharedReq_mshr_miss_latency::cpu0.data    122699500                       # number of ReadSharedReq MSHR miss cycles
system.l2.ReadSharedReq_mshr_miss_latency::total    122699500                       # number of ReadSharedReq MSHR miss cycles
system.l2.demand_mshr_miss_latency::cpu0.inst     31373500                       # number of demand (read+write) MSHR miss cycles
system.l2.demand_mshr_miss_latency::cpu0.data  12148042500                       # number of demand (read+write) MSHR miss cycles
system.l2.demand_mshr_miss_latency::total  12179416000                       # number of demand (read+write) MSHR miss cycles
system.l2.overall_mshr_miss_latency::cpu0.inst     31373500                       # number of overall MSHR miss cycles
system.l2.overall_mshr_miss_latency::cpu0.data  12148042500                       # number of overall MSHR miss cycles
system.l2.overall_mshr_miss_latency::total  12179416000                       # number of overall MSHR miss cycles
system.l2.ReadExReq_mshr_miss_rate::cpu0.data     0.999838                       # mshr miss rate for ReadExReq accesses
system.l2.ReadExReq_mshr_miss_rate::total     0.999838                       # mshr miss rate for ReadExReq accesses
system.l2.ReadCleanReq_mshr_miss_rate::cpu0.inst     0.523654                       # mshr miss rate for ReadCleanReq accesses
system.l2.ReadCleanReq_mshr_miss_rate::total     0.523654                       # mshr miss rate for ReadCleanReq accesses
system.l2.ReadSharedReq_mshr_miss_rate::cpu0.data     0.965675                       # mshr miss rate for ReadSharedReq accesses
system.l2.ReadSharedReq_mshr_miss_rate::total     0.965675                       # mshr miss rate for ReadSharedReq accesses
system.l2.demand_mshr_miss_rate::cpu0.inst     0.523654                       # mshr miss rate for demand accesses
system.l2.demand_mshr_miss_rate::cpu0.data     0.999551                       # mshr miss rate for demand accesses
system.l2.demand_mshr_miss_rate::total       0.997688                       # mshr miss rate for demand accesses
system.l2.overall_mshr_miss_rate::cpu0.inst     0.523654                       # mshr miss rate for overall accesses
system.l2.overall_mshr_miss_rate::cpu0.data     0.999551                       # mshr miss rate for overall accesses
system.l2.overall_mshr_miss_rate::total      0.997688                       # mshr miss rate for overall accesses
system.l2.ReadExReq_avg_mshr_miss_latency::cpu0.data 77764.978627                       # average ReadExReq mshr miss latency
system.l2.ReadExReq_avg_mshr_miss_latency::total 77764.978627                       # average ReadExReq mshr miss latency
system.l2.ReadCleanReq_avg_mshr_miss_latency::cpu0.inst 97736.760125                       # average ReadCleanReq mshr miss latency
system.l2.ReadCleanReq_avg_mshr_miss_latency::total 97736.760125                       # average ReadCleanReq mshr miss latency
system.l2.ReadSharedReq_avg_mshr_miss_latency::cpu0.data 96919.036335                       # average ReadSharedReq mshr miss latency
system.l2.ReadSharedReq_avg_mshr_miss_latency::total 96919.036335                       # average ReadSharedReq mshr miss latency
system.l2.demand_avg_mshr_miss_latency::cpu0.inst 97736.760125                       # average overall mshr miss latency
system.l2.demand_avg_mshr_miss_latency::cpu0.data 77920.517886                       # average overall mshr miss latency
system.l2.demand_avg_mshr_miss_latency::total 77961.235150                       # average overall mshr miss latency
system.l2.overall_avg_mshr_miss_latency::cpu0.inst 97736.760125                       # average overall mshr miss latency
system.l2.overall_avg_mshr_miss_latency::cpu0.data 77920.517886                       # average overall mshr miss latency
system.l2.overall_avg_mshr_miss_latency::total 77961.235150                       # average overall mshr miss latency
system.membus.snoop_filter.tot_requests        312290                       # Total number of requests made to the snoop filter.
system.membus.snoop_filter.hit_single_requests       156078                       # Number of requests hitting in the snoop filter with a single holder of the requested data.
system.membus.snoop_filter.hit_multi_requests            0                       # Number of requests hitting in the snoop filter with multiple (>1) holders of the requested data.
system.membus.snoop_filter.tot_snoops               0                       # Total number of snoops made to the snoop filter.
system.membus.snoop_filter.hit_single_snoops            0                       # Number of snoops hitting in the snoop filter with a single holder of the requested data.
system.membus.snoop_filter.hit_multi_snoops            0                       # Number of snoops hitting in the snoop filter with multiple (>1) holders of the requested data.
system.membus.pwrStateResidencyTicks::UNDEFINED  15267344125                       # Cumulative time (in ticks) in various power states
system.membus.trans_dist::ReadResp               1587                       # Transaction distribution
system.membus.trans_dist::WritebackDirty       154419                       # Transaction distribution
system.membus.trans_dist::CleanEvict             1647                       # Transaction distribution
system.membus.trans_dist::ReadExReq            154637                       # Transaction distribution
system.membus.trans_dist::ReadExResp           154637                       # Transaction distribution
system.membus.trans_dist::ReadSharedReq          1587                       # Transaction distribution
system.membus.pkt_count_system.l2.mem_side::system.mem_ctrls.port       468514                       # Packet count per connected master and slave (bytes)
system.membus.pkt_count_system.l2.mem_side::total       468514                       # Packet count per connected master and slave (bytes)
system.membus.pkt_count::total                 468514                       # Packet count per connected master and slave (bytes)
system.membus.pkt_size_system.l2.mem_side::system.mem_ctrls.port     19881152                       # Cumulative packet size per connected master and slave (bytes)
system.membus.pkt_size_system.l2.mem_side::total     19881152                       # Cumulative packet size per connected master and slave (bytes)
system.membus.pkt_size::total                19881152                       # Cumulative packet size per connected master and slave (bytes)
system.membus.snoops                                0                       # Total snoops (count)
system.membus.snoopTraffic                          0                       # Total snoop traffic (bytes)
system.membus.snoop_fanout::samples            156224                       # Request fanout histogram
system.membus.snoop_fanout::mean                    0                       # Request fanout histogram
system.membus.snoop_fanout::stdev                   0                       # Request fanout histogram
system.membus.snoop_fanout::underflows              0      0.00%      0.00% # Request fanout histogram
system.membus.snoop_fanout::0                  156224    100.00%    100.00% # Request fanout histogram
system.membus.snoop_fanout::1                       0      0.00%    100.00% # Request fanout histogram
system.membus.snoop_fanout::overflows               0      0.00%    100.00% # Request fanout histogram
system.membus.snoop_fanout::min_value               0                       # Request fanout histogram
system.membus.snoop_fanout::max_value               0                       # Request fanout histogram
system.membus.snoop_fanout::total              156224                       # Request fanout histogram
system.membus.reqLayer4.occupancy           930483000                       # Layer occupancy (ticks)
system.membus.reqLayer4.utilization               6.1                       # Layer utilization (%)
system.membus.respLayer1.occupancy          821554500                       # Layer occupancy (ticks)
system.membus.respLayer1.utilization              5.4                       # Layer utilization (%)
system.tol2bus.snoop_filter.tot_requests       313172                       # Total number of requests made to the snoop filter.
system.tol2bus.snoop_filter.hit_single_requests       156586                       # Number of requests hitting in the snoop filter with a single holder of the requested data.
system.tol2bus.snoop_filter.hit_multi_requests           81                       # Number of requests hitting in the snoop filter with multiple (>1) holders of the requested data.
system.tol2bus.snoop_filter.tot_snoops            782                       # Total number of snoops made to the snoop filter.
system.tol2bus.snoop_filter.hit_single_snoops          782                       # Number of snoops hitting in the snoop filter with a single holder of the requested data.
system.tol2bus.snoop_filter.hit_multi_snoops            0                       # Number of snoops hitting in the snoop filter with multiple (>1) holders of the requested data.
system.tol2bus.pwrStateResidencyTicks::UNDEFINED  15267344125                       # Cumulative time (in ticks) in various power states
system.tol2bus.trans_dist::ReadResp              1924                       # Transaction distribution
system.tol2bus.trans_dist::WritebackDirty       309442                       # Transaction distribution
system.tol2bus.trans_dist::WritebackClean          613                       # Transaction distribution
system.tol2bus.trans_dist::CleanEvict            3290                       # Transaction distribution
system.tol2bus.trans_dist::ReadExReq           154662                       # Transaction distribution
system.tol2bus.trans_dist::ReadExResp          154662                       # Transaction distribution
system.tol2bus.trans_dist::ReadCleanReq           613                       # Transaction distribution
system.tol2bus.trans_dist::ReadSharedReq         1311                       # Transaction distribution
system.tol2bus.pkt_count_system.cpu0.icache.mem_side::system.l2.cpu_side         1839                       # Packet count per connected master and slave (bytes)
system.tol2bus.pkt_count_system.cpu0.dcache.mem_side::system.l2.cpu_side       467919                       # Packet count per connected master and slave (bytes)
system.tol2bus.pkt_count::total                469758                       # Packet count per connected master and slave (bytes)
system.tol2bus.pkt_size_system.cpu0.icache.mem_side::system.l2.cpu_side        78464                       # Cumulative packet size per connected master and slave (bytes)
system.tol2bus.pkt_size_system.cpu0.dcache.mem_side::system.l2.cpu_side     19903744                       # Cumulative packet size per connected master and slave (bytes)
system.tol2bus.pkt_size::total               19982208                       # Cumulative packet size per connected master and slave (bytes)
system.tol2bus.snoops                          156759                       # Total snoops (count)
system.tol2bus.snoopTraffic                   9882816                       # Total snoop traffic (bytes)
system.tol2bus.snoop_fanout::samples           313345                       # Request fanout histogram
system.tol2bus.snoop_fanout::mean            0.002754                       # Request fanout histogram
system.tol2bus.snoop_fanout::stdev           0.052408                       # Request fanout histogram
system.tol2bus.snoop_fanout::underflows             0      0.00%      0.00% # Request fanout histogram
system.tol2bus.snoop_fanout::0                 312482     99.72%     99.72% # Request fanout histogram
system.tol2bus.snoop_fanout::1                    863      0.28%    100.00% # Request fanout histogram
system.tol2bus.snoop_fanout::2                      0      0.00%    100.00% # Request fanout histogram
system.tol2bus.snoop_fanout::3                      0      0.00%    100.00% # Request fanout histogram
system.tol2bus.snoop_fanout::4                      0      0.00%    100.00% # Request fanout histogram
system.tol2bus.snoop_fanout::5                      0      0.00%    100.00% # Request fanout histogram
system.tol2bus.snoop_fanout::6                      0      0.00%    100.00% # Request fanout histogram
system.tol2bus.snoop_fanout::7                      0      0.00%    100.00% # Request fanout histogram
system.tol2bus.snoop_fanout::8                      0      0.00%    100.00% # Request fanout histogram
system.tol2bus.snoop_fanout::overflows              0      0.00%    100.00% # Request fanout histogram
system.tol2bus.snoop_fanout::min_value              0                       # Request fanout histogram
system.tol2bus.snoop_fanout::max_value              1                       # Request fanout histogram
system.tol2bus.snoop_fanout::total             313345                       # Request fanout histogram
system.tol2bus.reqLayer0.occupancy          312222000                       # Layer occupancy (ticks)
system.tol2bus.reqLayer0.utilization              2.0                       # Layer utilization (%)
system.tol2bus.respLayer0.occupancy            919500                       # Layer occupancy (ticks)
system.tol2bus.respLayer0.utilization             0.0                       # Layer utilization (%)
system.tol2bus.respLayer1.occupancy         233959500                       # Layer occupancy (ticks)
system.tol2bus.respLayer1.utilization             1.5                       # Layer utilization (%)

---------- End Simulation Statistics   ----------
