
---------- Begin Simulation Statistics ----------
sim_seconds                                  0.015267                       # Number of seconds simulated
sim_ticks                                 15267344125                       # Number of ticks simulated
final_tick                               1755744574375                       # Number of ticks from beginning of simulation (restored from checkpoints and never reset)
sim_freq                                 1000000000000                       # Frequency of simulated ticks
host_inst_rate                               17439818                       # Simulator instruction rate (inst/s)
host_op_rate                                 31727961                       # Simulator op (including micro ops) rate (op/s)
host_tick_rate                               68520813                       # Simulator tick rate (ticks/s)
host_mem_usage                                1248940                       # Number of bytes of host memory used
host_seconds                                   222.81                       # Real time elapsed on the host
sim_insts                                  3885821587                       # Number of instructions simulated
sim_ops                                    7069409190                       # Number of ops (including micro ops) simulated
system.voltage_domain.voltage                       1                       # Voltage in Volts
system.clk_domain.clock                          1000                       # Clock period in ticks
system.mem_ctrls.pwrStateResidencyTicks::UNDEFINED  15267344125                       # Cumulative time (in ticks) in various power states
system.mem_ctrls.bytes_read::cpu0.data         911936                       # Number of bytes read from this memory
system.mem_ctrls.bytes_read::total             911936                       # Number of bytes read from this memory
system.mem_ctrls.bytes_written::writebacks       859136                       # Number of bytes written to this memory
system.mem_ctrls.bytes_written::total          859136                       # Number of bytes written to this memory
system.mem_ctrls.num_reads::cpu0.data           14249                       # Number of read requests responded to by this memory
system.mem_ctrls.num_reads::total               14249                       # Number of read requests responded to by this memory
system.mem_ctrls.num_writes::writebacks         13424                       # Number of write requests responded to by this memory
system.mem_ctrls.num_writes::total              13424                       # Number of write requests responded to by this memory
system.mem_ctrls.bw_read::cpu0.data          59731149                       # Total read bandwidth from this memory (bytes/s)
system.mem_ctrls.bw_read::total              59731149                       # Total read bandwidth from this memory (bytes/s)
system.mem_ctrls.bw_write::writebacks        56272787                       # Write bandwidth from this memory (bytes/s)
system.mem_ctrls.bw_write::total             56272787                       # Write bandwidth from this memory (bytes/s)
system.mem_ctrls.bw_total::writebacks        56272787                       # Total bandwidth to/from this memory (bytes/s)
system.mem_ctrls.bw_total::cpu0.data         59731149                       # Total bandwidth to/from this memory (bytes/s)
system.mem_ctrls.bw_total::total            116003935                       # Total bandwidth to/from this memory (bytes/s)
system.mem_ctrls.readReqs                       14249                       # Number of read requests accepted
system.mem_ctrls.writeReqs                      13424                       # Number of write requests accepted
system.mem_ctrls.readBursts                     14249                       # Number of DRAM read bursts, including those serviced by the write queue
system.mem_ctrls.writeBursts                    13424                       # Number of DRAM write bursts, including those merged in the write queue
system.mem_ctrls.bytesReadDRAM                 911936                       # Total number of bytes read from DRAM
system.mem_ctrls.bytesReadWrQ                       0                       # Total number of bytes read from write queue
system.mem_ctrls.bytesWritten                  858176                       # Total number of bytes written to DRAM
system.mem_ctrls.bytesReadSys                  911936                       # Total read bytes from the system interface side
system.mem_ctrls.bytesWrittenSys               859136                       # Total written bytes from the system interface side
system.mem_ctrls.servicedByWrQ                      0                       # Number of DRAM read bursts serviced by the write queue
system.mem_ctrls.mergedWrBursts                     0                       # Number of DRAM write bursts merged with an existing one
system.mem_ctrls.neitherReadNorWriteReqs            0                       # Number of requests that are neither read nor write
system.mem_ctrls.perBankRdBursts::0               768                       # Per bank write bursts
system.mem_ctrls.perBankRdBursts::1               768                       # Per bank write bursts
system.mem_ctrls.perBankRdBursts::2               768                       # Per bank write bursts
system.mem_ctrls.perBankRdBursts::3               768                       # Per bank write bursts
system.mem_ctrls.perBankRdBursts::4               895                       # Per bank write bursts
system.mem_ctrls.perBankRdBursts::5               896                       # Per bank write bursts
system.mem_ctrls.perBankRdBursts::6               896                       # Per bank write bursts
system.mem_ctrls.perBankRdBursts::7               897                       # Per bank write bursts
system.mem_ctrls.perBankRdBursts::8               896                       # Per bank write bursts
system.mem_ctrls.perBankRdBursts::9              1008                       # Per bank write bursts
system.mem_ctrls.perBankRdBursts::10              951                       # Per bank write bursts
system.mem_ctrls.perBankRdBursts::11              959                       # Per bank write bursts
system.mem_ctrls.perBankRdBursts::12             1024                       # Per bank write bursts
system.mem_ctrls.perBankRdBursts::13             1024                       # Per bank write bursts
system.mem_ctrls.perBankRdBursts::14              942                       # Per bank write bursts
system.mem_ctrls.perBankRdBursts::15              789                       # Per bank write bursts
system.mem_ctrls.perBankWrBursts::0               768                       # Per bank write bursts
system.mem_ctrls.perBankWrBursts::1               768                       # Per bank write bursts
system.mem_ctrls.perBankWrBursts::2               768                       # Per bank write bursts
system.mem_ctrls.perBankWrBursts::3               642                       # Per bank write bursts
system.mem_ctrls.perBankWrBursts::4               772                       # Per bank write bursts
system.mem_ctrls.perBankWrBursts::5               768                       # Per bank write bursts
system.mem_ctrls.perBankWrBursts::6               768                       # Per bank write bursts
system.mem_ctrls.perBankWrBursts::7               754                       # Per bank write bursts
system.mem_ctrls.perBankWrBursts::8               800                       # Per bank write bursts
system.mem_ctrls.perBankWrBursts::9               953                       # Per bank write bursts
system.mem_ctrls.perBankWrBursts::10              935                       # Per bank write bursts
system.mem_ctrls.perBankWrBursts::11              960                       # Per bank write bursts
system.mem_ctrls.perBankWrBursts::12             1024                       # Per bank write bursts
system.mem_ctrls.perBankWrBursts::13             1024                       # Per bank write bursts
system.mem_ctrls.perBankWrBursts::14              916                       # Per bank write bursts
system.mem_ctrls.perBankWrBursts::15              789                       # Per bank write bursts
system.mem_ctrls.numRdRetry                         0                       # Number of times read queue was full causing retry
system.mem_ctrls.numWrRetry                         0                       # Number of times write queue was full causing retry
system.mem_ctrls.totGap                   15267326500                       # Total gap between requests
system.mem_ctrls.readPktSize::0                     0                       # Read request sizes (log2)
system.mem_ctrls.readPktSize::1                     0                       # Read request sizes (log2)
system.mem_ctrls.readPktSize::2                     0                       # Read request sizes (log2)
system.mem_ctrls.readPktSize::3                     0                       # Read request sizes (log2)
system.mem_ctrls.readPktSize::4                     0                       # Read request sizes (log2)
system.mem_ctrls.readPktSize::5                     0                       # Read request sizes (log2)
system.mem_ctrls.readPktSize::6                 14249                       # Read request sizes (log2)
system.mem_ctrls.writePktSize::0                    0                       # Write request sizes (log2)
system.mem_ctrls.writePktSize::1                    0                       # Write request sizes (log2)
system.mem_ctrls.writePktSize::2                    0                       # Write request sizes (log2)
system.mem_ctrls.writePktSize::3                    0                       # Write request sizes (log2)
system.mem_ctrls.writePktSize::4                    0                       # Write request sizes (log2)
system.mem_ctrls.writePktSize::5                    0                       # Write request sizes (log2)
system.mem_ctrls.writePktSize::6                13424                       # Write request sizes (log2)
system.mem_ctrls.rdQLenPdf::0                   14247                       # What read queue length does an incoming req see
system.mem_ctrls.rdQLenPdf::1                       2                       # What read queue length does an incoming req see
system.mem_ctrls.rdQLenPdf::2                       0                       # What read queue length does an incoming req see
system.mem_ctrls.rdQLenPdf::3                       0                       # What read queue length does an incoming req see
system.mem_ctrls.rdQLenPdf::4                       0                       # What read queue length does an incoming req see
system.mem_ctrls.rdQLenPdf::5                       0                       # What read queue length does an incoming req see
system.mem_ctrls.rdQLenPdf::6                       0                       # What read queue length does an incoming req see
system.mem_ctrls.rdQLenPdf::7                       0                       # What read queue length does an incoming req see
system.mem_ctrls.rdQLenPdf::8                       0                       # What read queue length does an incoming req see
system.mem_ctrls.rdQLenPdf::9                       0                       # What read queue length does an incoming req see
system.mem_ctrls.rdQLenPdf::10                      0                       # What read queue length does an incoming req see
system.mem_ctrls.rdQLenPdf::11                      0                       # What read queue length does an incoming req see
system.mem_ctrls.rdQLenPdf::12                      0                       # What read queue length does an incoming req see
system.mem_ctrls.rdQLenPdf::13                      0                       # What read queue length does an incoming req see
system.mem_ctrls.rdQLenPdf::14                      0                       # What read queue length does an incoming req see
system.mem_ctrls.rdQLenPdf::15                      0                       # What read queue length does an incoming req see
system.mem_ctrls.rdQLenPdf::16                      0                       # What read queue length does an incoming req see
system.mem_ctrls.rdQLenPdf::17                      0                       # What read queue length does an incoming req see
system.mem_ctrls.rdQLenPdf::18                      0                       # What read queue length does an incoming req see
system.mem_ctrls.rdQLenPdf::19                      0                       # What read queue length does an incoming req see
system.mem_ctrls.rdQLenPdf::20                      0                       # What read queue length does an incoming req see
system.mem_ctrls.rdQLenPdf::21                      0                       # What read queue length does an incoming req see
system.mem_ctrls.rdQLenPdf::22                      0                       # What read queue length does an incoming req see
system.mem_ctrls.rdQLenPdf::23                      0                       # What read queue length does an incoming req see
system.mem_ctrls.rdQLenPdf::24                      0                       # What read queue length does an incoming req see
system.mem_ctrls.rdQLenPdf::25                      0                       # What read queue length does an incoming req see
system.mem_ctrls.rdQLenPdf::26                      0                       # What read queue length does an incoming req see
system.mem_ctrls.rdQLenPdf::27                      0                       # What read queue length does an incoming req see
system.mem_ctrls.rdQLenPdf::28                      0                       # What read queue length does an incoming req see
system.mem_ctrls.rdQLenPdf::29                      0                       # What read queue length does an incoming req see
system.mem_ctrls.rdQLenPdf::30                      0                       # What read queue length does an incoming req see
system.mem_ctrls.rdQLenPdf::31                      0                       # What read queue length does an incoming req see
system.mem_ctrls.wrQLenPdf::0                       0                       # What write queue length does an incoming req see
system.mem_ctrls.wrQLenPdf::1                       0                       # What write queue length does an incoming req see
system.mem_ctrls.wrQLenPdf::2                       0                       # What write queue length does an incoming req see
system.mem_ctrls.wrQLenPdf::3                       0                       # What write queue length does an incoming req see
system.mem_ctrls.wrQLenPdf::4                       0                       # What write queue length does an incoming req see
system.mem_ctrls.wrQLenPdf::5                       0                       # What write queue length does an incoming req see
system.mem_ctrls.wrQLenPdf::6                       0                       # What write queue length does an incoming req see
system.mem_ctrls.wrQLenPdf::7                       0                       # What write queue length does an incoming req see
system.mem_ctrls.wrQLenPdf::8                       0                       # What write queue length does an incoming req see
system.mem_ctrls.wrQLenPdf::9                       0                       # What write queue length does an incoming req see
system.mem_ctrls.wrQLenPdf::10                      0                       # What write queue length does an incoming req see
system.mem_ctrls.wrQLenPdf::11                      0                       # What write queue length does an incoming req see
system.mem_ctrls.wrQLenPdf::12                      0                       # What write queue length does an incoming req see
system.mem_ctrls.wrQLenPdf::13                      0                       # What write queue length does an incoming req see
system.mem_ctrls.wrQLenPdf::14                      0                       # What write queue length does an incoming req see
system.mem_ctrls.wrQLenPdf::15                    718                       # What write queue length does an incoming req see
system.mem_ctrls.wrQLenPdf::16                    724                       # What write queue length does an incoming req see
system.mem_ctrls.wrQLenPdf::17                    749                       # What write queue length does an incoming req see
system.mem_ctrls.wrQLenPdf::18                    749                       # What write queue length does an incoming req see
system.mem_ctrls.wrQLenPdf::19                    749                       # What write queue length does an incoming req see
system.mem_ctrls.wrQLenPdf::20                    749                       # What write queue length does an incoming req see
system.mem_ctrls.wrQLenPdf::21                    749                       # What write queue length does an incoming req see
system.mem_ctrls.wrQLenPdf::22                    749                       # What write queue length does an incoming req see
system.mem_ctrls.wrQLenPdf::23                    749                       # What write queue length does an incoming req see
system.mem_ctrls.wrQLenPdf::24                    749                       # What write queue length does an incoming req see
system.mem_ctrls.wrQLenPdf::25                    749                       # What write queue length does an incoming req see
system.mem_ctrls.wrQLenPdf::26                    749                       # What write queue length does an incoming req see
system.mem_ctrls.wrQLenPdf::27                    749                       # What write queue length does an incoming req see
system.mem_ctrls.wrQLenPdf::28                    749                       # What write queue length does an incoming req see
system.mem_ctrls.wrQLenPdf::29                    749                       # What write queue length does an incoming req see
system.mem_ctrls.wrQLenPdf::30                    749                       # What write queue length does an incoming req see
system.mem_ctrls.wrQLenPdf::31                    748                       # What write queue length does an incoming req see
system.mem_ctrls.wrQLenPdf::32                    748                       # What write queue length does an incoming req see
system.mem_ctrls.wrQLenPdf::33                      0                       # What write queue length does an incoming req see
system.mem_ctrls.wrQLenPdf::34                      0                       # What write queue length does an incoming req see
system.mem_ctrls.wrQLenPdf::35                      0                       # What write queue length does an incoming req see
system.mem_ctrls.wrQLenPdf::36                      0                       # What write queue length does an incoming req see
system.mem_ctrls.wrQLenPdf::37                      0                       # What write queue length does an incoming req see
system.mem_ctrls.wrQLenPdf::38                      0                       # What write queue length does an incoming req see
system.mem_ctrls.wrQLenPdf::39                      0                       # What write queue length does an incoming req see
system.mem_ctrls.wrQLenPdf::40                      0                       # What write queue length does an incoming req see
system.mem_ctrls.wrQLenPdf::41                      0                       # What write queue length does an incoming req see
system.mem_ctrls.wrQLenPdf::42                      0                       # What write queue length does an incoming req see
system.mem_ctrls.wrQLenPdf::43                      0                       # What write queue length does an incoming req see
system.mem_ctrls.wrQLenPdf::44                      0                       # What write queue length does an incoming req see
system.mem_ctrls.wrQLenPdf::45                      0                       # What write queue length does an incoming req see
system.mem_ctrls.wrQLenPdf::46                      0                       # What write queue length does an incoming req see
system.mem_ctrls.wrQLenPdf::47                      0                       # What write queue length does an incoming req see
system.mem_ctrls.wrQLenPdf::48                      0                       # What write queue length does an incoming req see
system.mem_ctrls.wrQLenPdf::49                      0                       # What write queue length does an incoming req see
system.mem_ctrls.wrQLenPdf::50                      0                       # What write queue length does an incoming req see
system.mem_ctrls.wrQLenPdf::51                      0                       # What write queue length does an incoming req see
system.mem_ctrls.wrQLenPdf::52                      0                       # What write queue length does an incoming req see
system.mem_ctrls.wrQLenPdf::53                      0                       # What write queue length does an incoming req see
system.mem_ctrls.wrQLenPdf::54                      0                       # What write queue length does an incoming req see
system.mem_ctrls.wrQLenPdf::55                      0                       # What write queue length does an incoming req see
system.mem_ctrls.wrQLenPdf::56                      0                       # What write queue length does an incoming req see
system.mem_ctrls.wrQLenPdf::57                      0                       # What write queue length does an incoming req see
system.mem_ctrls.wrQLenPdf::58                      0                       # What write queue length does an incoming req see
system.mem_ctrls.wrQLenPdf::59                      0                       # What write queue length does an incoming req see
system.mem_ctrls.wrQLenPdf::60                      0                       # What write queue length does an incoming req see
system.mem_ctrls.wrQLenPdf::61                      0                       # What write queue length does an incoming req see
system.mem_ctrls.wrQLenPdf::62                      0                       # What write queue length does an incoming req see
system.mem_ctrls.wrQLenPdf::63                      0                       # What write queue length does an incoming req see
system.mem_ctrls.bytesPerActivate::samples         5959                       # Bytes accessed per row activation
system.mem_ctrls.bytesPerActivate::mean    297.059238                       # Bytes accessed per row activation
system.mem_ctrls.bytesPerActivate::gmean   185.199933                       # Bytes accessed per row activation
system.mem_ctrls.bytesPerActivate::stdev   290.945929                       # Bytes accessed per row activation
system.mem_ctrls.bytesPerActivate::0-127         2325     39.02%     39.02% # Bytes accessed per row activation
system.mem_ctrls.bytesPerActivate::128-255          870     14.60%     53.62% # Bytes accessed per row activation
system.mem_ctrls.bytesPerActivate::256-383          550      9.23%     62.85% # Bytes accessed per row activation
system.mem_ctrls.bytesPerActivate::384-511         1454     24.40%     87.25% # Bytes accessed per row activation
system.mem_ctrls.bytesPerActivate::512-639           55      0.92%     88.17% # Bytes accessed per row activation
system.mem_ctrls.bytesPerActivate::640-767           50      0.84%     89.01% # Bytes accessed per row activation
system.mem_ctrls.bytesPerActivate::768-895           41      0.69%     89.70% # Bytes accessed per row activation
system.mem_ctrls.bytesPerActivate::896-1023           98      1.64%     91.34% # Bytes accessed per row activation
system.mem_ctrls.bytesPerActivate::1024-1151          516      8.66%    100.00% # Bytes accessed per row activation
system.mem_ctrls.bytesPerActivate::total         5959                       # Bytes accessed per row activation
system.mem_ctrls.rdPerTurnAround::samples          748                       # Reads before turning the bus around for writes
system.mem_ctrls.rdPerTurnAround::mean      19.029412                       # Reads before turning the bus around for writes
system.mem_ctrls.rdPerTurnAround::gmean     18.410919                       # Reads before turning the bus around for writes
system.mem_ctrls.rdPerTurnAround::stdev      9.502156                       # Reads before turning the bus around for writes
system.mem_ctrls.rdPerTurnAround::16-23           738     98.66%     98.66% # Reads before turning the bus around for writes
system.mem_ctrls.rdPerTurnAround::32-39             2      0.27%     98.93% # Reads before turning the bus around for writes
system.mem_ctrls.rdPerTurnAround::40-47             1      0.13%     99.06% # Reads before turning the bus around for writes
system.mem_ctrls.rdPerTurnAround::64-71             1      0.13%     99.20% # Reads before turning the bus around for writes
system.mem_ctrls.rdPerTurnAround::88-95             1      0.13%     99.33% # Reads before turning the bus around for writes
system.mem_ctrls.rdPerTurnAround::112-119            2      0.27%     99.60% # Reads before turning the bus around for writes
system.mem_ctrls.rdPerTurnAround::128-135            2      0.27%     99.87% # Reads before turning the bus around for writes
system.mem_ctrls.rdPerTurnAround::136-143            1      0.13%    100.00% # Reads before turning the bus around for writes
system.mem_ctrls.rdPerTurnAround::total           748                       # Reads before turning the bus around for writes
system.mem_ctrls.wrPerTurnAround::samples          748                       # Writes before turning the bus around for reads
system.mem_ctrls.wrPerTurnAround::mean      17.926471                       # Writes before turning the bus around for reads
system.mem_ctrls.wrPerTurnAround::gmean     17.922431                       # Writes before turning the bus around for reads
system.mem_ctrls.wrPerTurnAround::stdev      0.367625                       # Writes before turning the bus around for reads
system.mem_ctrls.wrPerTurnAround::16               25      3.34%      3.34% # Writes before turning the bus around for reads
system.mem_ctrls.wrPerTurnAround::17                5      0.67%      4.01% # Writes before turning the bus around for reads
system.mem_ctrls.wrPerTurnAround::18              718     95.99%    100.00% # Writes before turning the bus around for reads
system.mem_ctrls.wrPerTurnAround::total           748                       # Writes before turning the bus around for reads
system.mem_ctrls.totQLat                    323668500                       # Total ticks spent queuing
system.mem_ctrls.totMemAccLat               590837250                       # Total ticks spent from burst creation until serviced by the DRAM
system.mem_ctrls.totBusLat                   71245000                       # Total ticks spent in databus transfers
system.mem_ctrls.avgQLat                     22715.17                       # Average queueing delay per DRAM burst
system.mem_ctrls.avgBusLat                    5000.00                       # Average bus latency per DRAM burst
system.mem_ctrls.avgMemAccLat                41465.17                       # Average memory access latency per DRAM burst
system.mem_ctrls.avgRdBW                        59.73                       # Average DRAM read bandwidth in MiByte/s
system.mem_ctrls.avgWrBW                        56.21                       # Average achieved write bandwidth in MiByte/s
system.mem_ctrls.avgRdBWSys                     59.73                       # Average system read bandwidth in MiByte/s
system.mem_ctrls.avgWrBWSys                     56.27                       # Average system write bandwidth in MiByte/s
system.mem_ctrls.peakBW                      12800.00                       # Theoretical peak bandwidth in MiByte/s
system.mem_ctrls.busUtil                         0.91                       # Data bus utilization in percentage
system.mem_ctrls.busUtilRead                     0.47                       # Data bus utilization in percentage for reads
system.mem_ctrls.busUtilWrite                    0.44                       # Data bus utilization in percentage for writes
system.mem_ctrls.avgRdQLen                       1.00                       # Average read queue length when enqueuing
system.mem_ctrls.avgWrQLen                      24.59                       # Average write queue length when enqueuing
system.mem_ctrls.readRowHits                    10349                       # Number of row buffer hits during reads
system.mem_ctrls.writeRowHits                   11351                       # Number of row buffer hits during writes
system.mem_ctrls.readRowHitRate                 72.63                       # Row buffer hit rate for reads
system.mem_ctrls.writeRowHitRate                84.56                       # Row buffer hit rate for writes
system.mem_ctrls.avgGap                     551704.78                       # Average gap between requests
system.mem_ctrls.pageHitRate                    78.42                       # Row buffer hit rate, read and write combined
system.mem_ctrls_0.actEnergy                 14465640                       # Energy for activate commands per rank (pJ)
system.mem_ctrls_0.preEnergy                  7692465                       # Energy for precharge commands per rank (pJ)
system.mem_ctrls_0.readEnergy                47530980                       # Energy for read commands per rank (pJ)
system.mem_ctrls_0.writeEnergy               31361760                       # Energy for write commands per rank (pJ)
system.mem_ctrls_0.refreshEnergy         882623040.000000                       # Energy for refresh commands per rank (pJ)
system.mem_ctrls_0.actBackEnergy            401091900                       # Energy for active background per rank (pJ)
system.mem_ctrls_0.preBackEnergy             41268480                       # Energy for precharge background per rank (pJ)
system.mem_ctrls_0.actPowerDownEnergy      3047119680                       # Energy for active power-down per rank (pJ)
system.mem_ctrls_0.prePowerDownEnergy       758640480                       # Energy for precharge power-down per rank (pJ)
system.mem_ctrls_0.selfRefreshEnergy       1466446080                       # Energy for self refresh per rank (pJ)
system.mem_ctrls_0.totalEnergy             6698390445                       # Total energy per rank (pJ)
system.mem_ctrls_0.averagePower            438.739730                       # Core power per rank (mW)
system.mem_ctrls_0.totalIdleTime          14268769250                       # Total Idle time Per DRAM Rank
system.mem_ctrls_0.memoryStateTime::IDLE     63246000                       # Time in different power states
system.mem_ctrls_0.memoryStateTime::REF     374656000                       # Time in different power states
system.mem_ctrls_0.memoryStateTime::SREF   5622050375                       # Time in different power states
system.mem_ctrls_0.memoryStateTime::PRE_PDN   1975669000                       # Time in different power states
system.mem_ctrls_0.memoryStateTime::ACT     549487750                       # Time in different power states
system.mem_ctrls_0.memoryStateTime::ACT_PDN   6682235000                       # Time in different power states
system.mem_ctrls_1.actEnergy                 28081620                       # Energy for activate commands per rank (pJ)
system.mem_ctrls_1.preEnergy                 14921940                       # Energy for precharge commands per rank (pJ)
system.mem_ctrls_1.readEnergy                54214020                       # Energy for read commands per rank (pJ)
system.mem_ctrls_1.writeEnergy               38633220                       # Energy for write commands per rank (pJ)
system.mem_ctrls_1.refreshEnergy         1264314480.000000                       # Energy for refresh commands per rank (pJ)
system.mem_ctrls_1.actBackEnergy            733653270                       # Energy for active background per rank (pJ)
system.mem_ctrls_1.preBackEnergy             79830720                       # Energy for precharge background per rank (pJ)
system.mem_ctrls_1.actPowerDownEnergy      3832012530                       # Energy for active power-down per rank (pJ)
system.mem_ctrls_1.prePowerDownEnergy      1374018720                       # Energy for precharge power-down per rank (pJ)
system.mem_ctrls_1.selfRefreshEnergy        521510040                       # Energy for self refresh per rank (pJ)
system.mem_ctrls_1.totalEnergy             7942034250                       # Total energy per rank (pJ)
system.mem_ctrls_1.averagePower            520.197500                       # Core power per rank (mW)
system.mem_ctrls_1.totalIdleTime          13448897500                       # Total Idle time Per DRAM Rank
system.mem_ctrls_1.memoryStateTime::IDLE    154497500                       # Time in different power states
system.mem_ctrls_1.memoryStateTime::REF     536668000                       # Time in different power states
system.mem_ctrls_1.memoryStateTime::SREF   1466979000                       # Time in different power states
system.mem_ctrls_1.memoryStateTime::PRE_PDN   3578170250                       # Time in different power states
system.mem_ctrls_1.memoryStateTime::ACT    1127281125                       # Time in different power states
system.mem_ctrls_1.memoryStateTime::ACT_PDN   8403748250                       # Time in different power states
system.pwrStateResidencyTicks::UNDEFINED  15267344125                       # Cumulative time (in ticks) in various power states
system.cpu0.branchPred.lookups                5266342                       # Number of BP lookups
system.cpu0.branchPred.condPredicted          5266342                       # Number of conditional branches predicted
system.cpu0.branchPred.condIncorrect           109531                       # Number of conditional branches incorrect
system.cpu0.branchPred.BTBLookups             4217688                       # Number of BTB lookups
system.cpu0.branchPred.BTBHits                      0                       # Number of BTB hits
system.cpu0.branchPred.BTBCorrect                   0                       # Number of correct BTB predictions (this stat may not work properly.
system.cpu0.branchPred.BTBHitPct             0.000000                       # BTB Hit Percentage
system.cpu0.branchPred.usedRAS                 733154                       # Number of times the RAS was used to get a target.
system.cpu0.branchPred.RASInCorrect                 0                       # Number of incorrect RAS predictions.
system.cpu0.branchPred.indirectLookups        4217688                       # Number of indirect predictor lookups.
system.cpu0.branchPred.indirectHits           2529074                       # Number of indirect target hits.
system.cpu0.branchPred.indirectMisses         1688614                       # Number of indirect misses.
system.cpu0.branchPredindirectMispredicted            0                       # Number of mispredicted indirect branches.
system.cpu_voltage_domain.voltage                   1                       # Voltage in Volts
system.cpu_clk_domain.clock                       500                       # Clock period in ticks
system.cpu0.dtb.walker.pwrStateResidencyTicks::UNDEFINED  15267344125                       # Cumulative time (in ticks) in various power states
system.cpu0.dtb.rdAccesses                    8935179                       # TLB accesses on read requests
system.cpu0.dtb.wrAccesses                    2099312                       # TLB accesses on write requests
system.cpu0.dtb.rdMisses                          224                       # TLB misses on read requests
system.cpu0.dtb.wrMisses                            0                       # TLB misses on write requests
system.cpu0.apic_clk_domain.clock                8000                       # Clock period in ticks
system.cpu0.interrupts.pwrStateResidencyTicks::UNDEFINED  15267344125                       # Cumulative time (in ticks) in various power states
system.cpu0.itb.walker.pwrStateResidencyTicks::UNDEFINED  15267344125                       # Cumulative time (in ticks) in various power states
system.cpu0.itb.rdAccesses                          0                       # TLB accesses on read requests
system.cpu0.itb.wrAccesses                    6295328                       # TLB accesses on write requests
system.cpu0.itb.rdMisses                            0                       # TLB misses on read requests
system.cpu0.itb.wrMisses                            0                       # TLB misses on write requests
system.cpu0.workload.numSyscalls                    0                       # Number of system calls
system.cpu0.pwrStateResidencyTicks::ON    15267344125                       # Cumulative time (in ticks) in various power states
system.cpu0.numCycles                        30534688                       # number of cpu cycles simulated
system.cpu0.numWorkItemsStarted                     0                       # number of work items this cpu started
system.cpu0.numWorkItemsCompleted                   0                       # number of work items this cpu completed
system.cpu0.fetch.icacheStallCycles           6349570                       # Number of cycles fetch is stalled on an Icache miss
system.cpu0.fetch.Insts                      46555502                       # Number of instructions fetch has processed
system.cpu0.fetch.Branches                    5266342                       # Number of branches that fetch encountered
system.cpu0.fetch.predictedBranches           3262228                       # Number of branches that fetch has predicted taken
system.cpu0.fetch.Cycles                     24075484                       # Number of cycles fetch has run and was not squashing or blocked
system.cpu0.fetch.SquashCycles                 219268                       # Number of cycles fetch has spent squashing
system.cpu0.fetch.CacheLines                  6295328                       # Number of cache lines fetched
system.cpu0.fetch.IcacheSquashes                55368                       # Number of outstanding Icache misses that were squashed
system.cpu0.fetch.rateDist::samples          30534688                       # Number of instructions fetched each cycle (Total)
system.cpu0.fetch.rateDist::mean             2.663880                       # Number of instructions fetched each cycle (Total)
system.cpu0.fetch.rateDist::stdev            3.372188                       # Number of instructions fetched each cycle (Total)
system.cpu0.fetch.rateDist::underflows              0      0.00%      0.00% # Number of instructions fetched each cycle (Total)
system.cpu0.fetch.rateDist::0                16741044     54.83%     54.83% # Number of instructions fetched each cycle (Total)
system.cpu0.fetch.rateDist::1                  736816      2.41%     57.24% # Number of instructions fetched each cycle (Total)
system.cpu0.fetch.rateDist::2                 1667700      5.46%     62.70% # Number of instructions fetched each cycle (Total)
system.cpu0.fetch.rateDist::3                  658624      2.16%     64.86% # Number of instructions fetched each cycle (Total)
system.cpu0.fetch.rateDist::4                  974092      3.19%     68.05% # Number of instructions fetched each cycle (Total)
system.cpu0.fetch.rateDist::5                 1545451      5.06%     73.11% # Number of instructions fetched each cycle (Total)
system.cpu0.fetch.rateDist::6                  566584      1.86%     74.96% # Number of instructions fetched each cycle (Total)
system.cpu0.fetch.rateDist::7                  885481      2.90%     77.86% # Number of instructions fetched each cycle (Total)
system.cpu0.fetch.rateDist::8                 6758896     22.14%    100.00% # Number of instructions fetched each cycle (Total)
system.cpu0.fetch.rateDist::overflows               0      0.00%    100.00% # Number of instructions fetched each cycle (Total)
system.cpu0.fetch.rateDist::min_value               0                       # Number of instructions fetched each cycle (Total)
system.cpu0.fetch.rateDist::max_value               8                       # Number of instructions fetched each cycle (Total)
system.cpu0.fetch.rateDist::total            30534688                       # Number of instructions fetched each cycle (Total)
system.cpu0.fetch.branchRate                 0.172471                       # Number of branch fetches per cycle
system.cpu0.fetch.rate                       1.524676                       # Number of inst fetches per cycle
system.cpu0.decode.IdleCycles                 4152243                       # Number of cycles decode is idle
system.cpu0.decode.BlockedCycles             15703250                       # Number of cycles decode is blocked
system.cpu0.decode.RunCycles                  6241515                       # Number of cycles decode is running
system.cpu0.decode.UnblockCycles              4328046                       # Number of cycles decode is unblocking
system.cpu0.decode.SquashCycles                109634                       # Number of cycles decode is squashing
system.cpu0.decode.DecodedInsts              77755493                       # Number of instructions handled by decode
system.cpu0.rename.SquashCycles                109634                       # Number of cycles rename is squashing
system.cpu0.rename.IdleCycles                 5855464                       # Number of cycles rename is idle
system.cpu0.rename.BlockCycles                5628839                       # Number of cycles rename is blocking
system.cpu0.rename.serializeStallCycles             0                       # count of cycles rename stalled for serializing inst
system.cpu0.rename.RunCycles                  8807187                       # Number of cycles rename is running
system.cpu0.rename.UnblockCycles             10133564                       # Number of cycles rename is unblocking
system.cpu0.rename.RenamedInsts              77258103                       # Number of instructions processed by rename
system.cpu0.rename.ROBFullEvents               198882                       # Number of times rename has blocked due to ROB full
system.cpu0.rename.IQFullEvents               9063155                       # Number of times rename has blocked due to IQ full
system.cpu0.rename.LQFullEvents                  1061                       # Number of times rename has blocked due to LQ full
system.cpu0.rename.RenamedOperands           83108594                       # Number of destination operands rename has renamed
system.cpu0.rename.RenameLookups            183523151                       # Number of register rename lookups that rename has made
system.cpu0.rename.int_rename_lookups        60389562                       # Number of integer rename lookups
system.cpu0.rename.fp_rename_lookups         75348485                       # Number of floating rename lookups
system.cpu0.rename.CommittedMaps             70527005                       # Number of HB maps that are committed
system.cpu0.rename.UndoneMaps                12581592                       # Number of HB maps that are undone due to squashing
system.cpu0.rename.serializingInsts                 0                       # count of serializing insts renamed
system.cpu0.rename.tempSerializingInsts             0                       # count of temporary serializing insts renamed
system.cpu0.rename.skidInsts                 23245901                       # count of insts added to the skid buffer
system.cpu0.memDep0.insertedLoads             9533520                       # Number of loads inserted to the mem dependence unit.
system.cpu0.memDep0.insertedStores            2101652                       # Number of stores inserted to the mem dependence unit.
system.cpu0.memDep0.conflictingLoads           425799                       # Number of conflicting loads.
system.cpu0.memDep0.conflictingStores          184735                       # Number of conflicting stores.
system.cpu0.iq.iqInstsAdded                  76581784                       # Number of instructions added to the IQ (excludes non-spec)
system.cpu0.iq.iqInstsIssued                 70870301                       # Number of instructions issued
system.cpu0.iq.iqSquashedInstsExamined       10667889                       # Number of squashed instructions iterated over during squash; mainly for profiling
system.cpu0.iq.iqSquashedOperandsExamined     15370673                       # Number of squashed operands that are examined and possibly removed from graph
system.cpu0.iq.issued_per_cycle::samples     30534688                       # Number of insts issued each cycle
system.cpu0.iq.issued_per_cycle::mean        2.320977                       # Number of insts issued each cycle
system.cpu0.iq.issued_per_cycle::stdev       1.957610                       # Number of insts issued each cycle
system.cpu0.iq.issued_per_cycle::underflows            0      0.00%      0.00% # Number of insts issued each cycle
system.cpu0.iq.issued_per_cycle::0            6315003     20.68%     20.68% # Number of insts issued each cycle
system.cpu0.iq.issued_per_cycle::1            6116643     20.03%     40.71% # Number of insts issued each cycle
system.cpu0.iq.issued_per_cycle::2            5657963     18.53%     59.24% # Number of insts issued each cycle
system.cpu0.iq.issued_per_cycle::3            4864364     15.93%     75.17% # Number of insts issued each cycle
system.cpu0.iq.issued_per_cycle::4            2975071      9.74%     84.92% # Number of insts issued each cycle
system.cpu0.iq.issued_per_cycle::5            1977234      6.48%     91.39% # Number of insts issued each cycle
system.cpu0.iq.issued_per_cycle::6            1631450      5.34%     96.73% # Number of insts issued each cycle
system.cpu0.iq.issued_per_cycle::7             706194      2.31%     99.05% # Number of insts issued each cycle
system.cpu0.iq.issued_per_cycle::8             290766      0.95%    100.00% # Number of insts issued each cycle
system.cpu0.iq.issued_per_cycle::overflows            0      0.00%    100.00% # Number of insts issued each cycle
system.cpu0.iq.issued_per_cycle::min_value            0                       # Number of insts issued each cycle
system.cpu0.iq.issued_per_cycle::max_value            8                       # Number of insts issued each cycle
system.cpu0.iq.issued_per_cycle::total       30534688                       # Number of insts issued each cycle
system.cpu0.iq.fu_full::No_OpClass                  0      0.00%      0.00% # attempts to use FU when none available
system.cpu0.iq.fu_full::IntAlu                     15      0.01%      0.01% # attempts to use FU when none available
system.cpu0.iq.fu_full::IntMult                     0      0.00%      0.01% # attempts to use FU when none available
system.cpu0.iq.fu_full::IntDiv                      0      0.00%      0.01% # attempts to use FU when none available
system.cpu0.iq.fu_full::FloatAdd               106577     99.82%     99.83% # attempts to use FU when none available
system.cpu0.iq.fu_full::FloatCmp                    0      0.00%     99.83% # attempts to use FU when none available
system.cpu0.iq.fu_full::FloatCvt                    0      0.00%     99.83% # attempts to use FU when none available
system.cpu0.iq.fu_full::FloatMult                   0      0.00%     99.83% # attempts to use FU when none available
system.cpu0.iq.fu_full::FloatMultAcc                0      0.00%     99.83% # attempts to use FU when none available
system.cpu0.iq.fu_full::FloatDiv                    0      0.00%     99.83% # attempts to use FU when none available
system.cpu0.iq.fu_full::FloatMisc                   0      0.00%     99.83% # attempts to use FU when none available
system.cpu0.iq.fu_full::FloatSqrt                   0      0.00%     99.83% # attempts to use FU when none available
system.cpu0.iq.fu_full::SimdAdd                     0      0.00%     99.83% # attempts to use FU when none available
system.cpu0.iq.fu_full::SimdAddAcc                  0      0.00%     99.83% # attempts to use FU when none available
system.cpu0.iq.fu_full::SimdAlu                     0      0.00%     99.83% # attempts to use FU when none available
system.cpu0.iq.fu_full::SimdCmp                     0      0.00%     99.83% # attempts to use FU when none available
system.cpu0.iq.fu_full::SimdCvt                     0      0.00%     99.83% # attempts to use FU when none available
system.cpu0.iq.fu_full::SimdMisc                    0      0.00%     99.83% # attempts to use FU when none available
system.cpu0.iq.fu_full::SimdMult                    0      0.00%     99.83% # attempts to use FU when none available
system.cpu0.iq.fu_full::SimdMultAcc                 0      0.00%     99.83% # attempts to use FU when none available
system.cpu0.iq.fu_full::SimdShift                   0      0.00%     99.83% # attempts to use FU when none available
system.cpu0.iq.fu_full::SimdShiftAcc                0      0.00%     99.83% # attempts to use FU when none available
system.cpu0.iq.fu_full::SimdSqrt                    0      0.00%     99.83% # attempts to use FU when none available
system.cpu0.iq.fu_full::SimdFloatAdd                0      0.00%     99.83% # attempts to use FU when none available
system.cpu0.iq.fu_full::SimdFloatAlu                0      0.00%     99.83% # attempts to use FU when none available
system.cpu0.iq.fu_full::SimdFloatCmp                0      0.00%     99.83% # attempts to use FU when none available
system.cpu0.iq.fu_full::SimdFloatCvt                0      0.00%     99.83% # attempts to use FU when none available
system.cpu0.iq.fu_full::SimdFloatDiv                0      0.00%     99.83% # attempts to use FU when none available
system.cpu0.iq.fu_full::SimdFloatMisc               0      0.00%     99.83% # attempts to use FU when none available
system.cpu0.iq.fu_full::SimdFloatMult               0      0.00%     99.83% # attempts to use FU when none available
system.cpu0.iq.fu_full::SimdFloatMultAcc            0      0.00%     99.83% # attempts to use FU when none available
system.cpu0.iq.fu_full::SimdFloatSqrt               0      0.00%     99.83% # attempts to use FU when none available
system.cpu0.iq.fu_full::MemRead                   177      0.17%    100.00% # attempts to use FU when none available
system.cpu0.iq.fu_full::MemWrite                    0      0.00%    100.00% # attempts to use FU when none available
system.cpu0.iq.fu_full::FloatMemRead                0      0.00%    100.00% # attempts to use FU when none available
system.cpu0.iq.fu_full::FloatMemWrite               0      0.00%    100.00% # attempts to use FU when none available
system.cpu0.iq.fu_full::IprAccess                   0      0.00%    100.00% # attempts to use FU when none available
system.cpu0.iq.fu_full::InstPrefetch                0      0.00%    100.00% # attempts to use FU when none available
system.cpu0.iq.FU_type_0::No_OpClass             6250      0.01%      0.01% # Type of FU issued
system.cpu0.iq.FU_type_0::IntAlu             36869482     52.02%     52.03% # Type of FU issued
system.cpu0.iq.FU_type_0::IntMult                   0      0.00%     52.03% # Type of FU issued
system.cpu0.iq.FU_type_0::IntDiv                    0      0.00%     52.03% # Type of FU issued
system.cpu0.iq.FU_type_0::FloatAdd           22984585     32.43%     84.46% # Type of FU issued
system.cpu0.iq.FU_type_0::FloatCmp                  0      0.00%     84.46% # Type of FU issued
system.cpu0.iq.FU_type_0::FloatCvt                  0      0.00%     84.46% # Type of FU issued
system.cpu0.iq.FU_type_0::FloatMult                 0      0.00%     84.46% # Type of FU issued
system.cpu0.iq.FU_type_0::FloatMultAcc              0      0.00%     84.46% # Type of FU issued
system.cpu0.iq.FU_type_0::FloatDiv                  0      0.00%     84.46% # Type of FU issued
system.cpu0.iq.FU_type_0::FloatMisc                 0      0.00%     84.46% # Type of FU issued
system.cpu0.iq.FU_type_0::FloatSqrt                 0      0.00%     84.46% # Type of FU issued
system.cpu0.iq.FU_type_0::SimdAdd                   0      0.00%     84.46% # Type of FU issued
system.cpu0.iq.FU_type_0::SimdAddAcc                0      0.00%     84.46% # Type of FU issued
system.cpu0.iq.FU_type_0::SimdAlu                   0      0.00%     84.46% # Type of FU issued
system.cpu0.iq.FU_type_0::SimdCmp                   0      0.00%     84.46% # Type of FU issued
system.cpu0.iq.FU_type_0::SimdCvt                   0      0.00%     84.46% # Type of FU issued
system.cpu0.iq.FU_type_0::SimdMisc                  0      0.00%     84.46% # Type of FU issued
system.cpu0.iq.FU_type_0::SimdMult                  0      0.00%     84.46% # Type of FU issued
system.cpu0.iq.FU_type_0::SimdMultAcc               0      0.00%     84.46% # Type of FU issued
system.cpu0.iq.FU_type_0::SimdShift                 0      0.00%     84.46% # Type of FU issued
system.cpu0.iq.FU_type_0::SimdShiftAcc              0      0.00%     84.46% # Type of FU issued
system.cpu0.iq.FU_type_0::SimdSqrt                  0      0.00%     84.46% # Type of FU issued
system.cpu0.iq.FU_type_0::SimdFloatAdd              0      0.00%     84.46% # Type of FU issued
system.cpu0.iq.FU_type_0::SimdFloatAlu              0      0.00%     84.46% # Type of FU issued
system.cpu0.iq.FU_type_0::SimdFloatCmp              0      0.00%     84.46% # Type of FU issued
system.cpu0.iq.FU_type_0::SimdFloatCvt              0      0.00%     84.46% # Type of FU issued
system.cpu0.iq.FU_type_0::SimdFloatDiv              0      0.00%     84.46% # Type of FU issued
system.cpu0.iq.FU_type_0::SimdFloatMisc             0      0.00%     84.46% # Type of FU issued
system.cpu0.iq.FU_type_0::SimdFloatMult             0      0.00%     84.46% # Type of FU issued
system.cpu0.iq.FU_type_0::SimdFloatMultAcc            0      0.00%     84.46% # Type of FU issued
system.cpu0.iq.FU_type_0::SimdFloatSqrt             0      0.00%     84.46% # Type of FU issued
system.cpu0.iq.FU_type_0::MemRead             1959951      2.77%     87.23% # Type of FU issued
system.cpu0.iq.FU_type_0::MemWrite            1472634      2.08%     89.31% # Type of FU issued
system.cpu0.iq.FU_type_0::FloatMemRead        6950133      9.81%     99.11% # Type of FU issued
system.cpu0.iq.FU_type_0::FloatMemWrite        627266      0.89%    100.00% # Type of FU issued
system.cpu0.iq.FU_type_0::IprAccess                 0      0.00%    100.00% # Type of FU issued
system.cpu0.iq.FU_type_0::InstPrefetch              0      0.00%    100.00% # Type of FU issued
system.cpu0.iq.FU_type_0::total              70870301                       # Type of FU issued
system.cpu0.iq.rate                          2.320977                       # Inst issue rate
system.cpu0.iq.fu_busy_cnt                     106769                       # FU busy when requested
system.cpu0.iq.fu_busy_rate                  0.001507                       # FU busy rate (busy events/executed inst)
system.cpu0.iq.int_inst_queue_reads          97578832                       # Number of integer instruction queue reads
system.cpu0.iq.int_inst_queue_writes         37599923                       # Number of integer instruction queue writes
system.cpu0.iq.int_inst_queue_wakeup_accesses     33458439                       # Number of integer instruction queue wakeup accesses
system.cpu0.iq.fp_inst_queue_reads           74803228                       # Number of floating instruction queue reads
system.cpu0.iq.fp_inst_queue_writes          49649853                       # Number of floating instruction queue writes
system.cpu0.iq.fp_inst_queue_wakeup_accesses     37203196                       # Number of floating instruction queue wakeup accesses
system.cpu0.iq.vec_inst_queue_reads                 0                       # Number of vector instruction queue reads
system.cpu0.iq.vec_inst_queue_writes                0                       # Number of vector instruction queue writes
system.cpu0.iq.vec_inst_queue_wakeup_accesses            0                       # Number of vector instruction queue wakeup accesses
system.cpu0.iq.int_alu_accesses              33515911                       # Number of integer alu accesses
system.cpu0.iq.fp_alu_accesses               37454909                       # Number of floating point alu accesses
system.cpu0.iq.vec_alu_accesses                     0                       # Number of vector alu accesses
system.cpu0.iew.lsq.thread0.forwLoads          419568                       # Number of loads that had data forwarded from stores
system.cpu0.iew.lsq.thread0.invAddrLoads            0                       # Number of loads ignored due to an invalid address
system.cpu0.iew.lsq.thread0.squashedLoads      1416932                       # Number of loads squashed
system.cpu0.iew.lsq.thread0.ignoredResponses            4                       # Number of memory responses ignored because the instruction is squashed
system.cpu0.iew.lsq.thread0.memOrderViolation          103                       # Number of memory ordering violations
system.cpu0.iew.lsq.thread0.squashedStores         3733                       # Number of stores squashed
system.cpu0.iew.lsq.thread0.invAddrSwpfs            0                       # Number of software prefetches ignored due to an invalid address
system.cpu0.iew.lsq.thread0.blockedLoads            0                       # Number of blocked loads due to partial load-store forwarding
system.cpu0.iew.lsq.thread0.rescheduledLoads            0                       # Number of loads that were rescheduled
system.cpu0.iew.lsq.thread0.cacheBlocked            0                       # Number of times an access to memory failed due to the cache being blocked
system.cpu0.iew.iewIdleCycles                       0                       # Number of cycles IEW is idle
system.cpu0.iew.iewSquashCycles                109634                       # Number of cycles IEW is squashing
system.cpu0.iew.iewBlockCycles                3278559                       # Number of cycles IEW is blocking
system.cpu0.iew.iewUnblockCycles               113020                       # Number of cycles IEW is unblocking
system.cpu0.iew.iewDispatchedInsts           76581784                       # Number of instructions dispatched to IQ
system.cpu0.iew.iewDispSquashedInsts                1                       # Number of squashed instructions skipped by dispatch
system.cpu0.iew.iewDispLoadInsts              9533520                       # Number of dispatched load instructions
system.cpu0.iew.iewDispStoreInsts             2101652                       # Number of dispatched store instructions
system.cpu0.iew.iewDispNonSpecInsts                 0                       # Number of dispatched non-speculative instructions
system.cpu0.iew.iewIQFullEvents                 99491                       # Number of times the IQ has become full, causing a stall
system.cpu0.iew.iewLSQFullEvents                  100                       # Number of times the LSQ has become full, causing a stall
system.cpu0.iew.memOrderViolationEvents           103                       # Number of memory order violations
system.cpu0.iew.predictedTakenIncorrect         58453                       # Number of branches that were predicted taken incorrectly
system.cpu0.iew.predictedNotTakenIncorrect        51083                       # Number of branches that were predicted not taken incorrectly
system.cpu0.iew.branchMispredicts              109536                       # Number of branch mispredicts detected at execute
system.cpu0.iew.iewExecutedInsts             70670403                       # Number of executed instructions
system.cpu0.iew.iewExecLoadInsts              8908927                       # Number of load instructions executed
system.cpu0.iew.iewExecSquashedInsts           199899                       # Number of squashed instructions skipped in execute
system.cpu0.iew.exec_swp                            0                       # number of swp insts executed
system.cpu0.iew.exec_nop                            0                       # number of nop insts executed
system.cpu0.iew.exec_refs                    11008239                       # number of memory reference insts executed
system.cpu0.iew.exec_branches                 4718228                       # Number of branches executed
system.cpu0.iew.exec_stores                   2099312                       # Number of stores executed
system.cpu0.iew.exec_rate                    2.314430                       # Inst execution rate
system.cpu0.iew.wb_sent                      70665938                       # cumulative count of insts sent to commit
system.cpu0.iew.wb_count                     70661635                       # cumulative count of insts written-back
system.cpu0.iew.wb_producers                 52603521                       # num instructions producing a value
system.cpu0.iew.wb_consumers                 92566323                       # num instructions consuming a value
system.cpu0.iew.wb_rate                      2.314143                       # insts written-back per cycle
system.cpu0.iew.wb_fanout                    0.568279                       # average fanout of values written-back
system.cpu0.commit.commitSquashedInsts       10667889                       # The number of squashed insts skipped by commit
system.cpu0.commit.branchMispredicts           109531                       # The number of times a branch was mispredicted
system.cpu0.commit.committed_per_cycle::samples     29170240                       # Number of insts commited each cycle
system.cpu0.commit.committed_per_cycle::mean     2.259628                       # Number of insts commited each cycle
system.cpu0.commit.committed_per_cycle::stdev     2.862657                       # Number of insts commited each cycle
system.cpu0.commit.committed_per_cycle::underflows            0      0.00%      0.00% # Number of insts commited each cycle
system.cpu0.commit.committed_per_cycle::0     10904424     37.38%     37.38% # Number of insts commited each cycle
system.cpu0.commit.committed_per_cycle::1      7532096     25.82%     63.20% # Number of insts commited each cycle
system.cpu0.commit.committed_per_cycle::2      1056318      3.62%     66.82% # Number of insts commited each cycle
system.cpu0.commit.committed_per_cycle::3      2912664      9.99%     76.81% # Number of insts commited each cycle
system.cpu0.commit.committed_per_cycle::4      1143879      3.92%     80.73% # Number of insts commited each cycle
system.cpu0.commit.committed_per_cycle::5       217144      0.74%     81.48% # Number of insts commited each cycle
system.cpu0.commit.committed_per_cycle::6       421101      1.44%     82.92% # Number of insts commited each cycle
system.cpu0.commit.committed_per_cycle::7       517578      1.77%     84.69% # Number of insts commited each cycle
system.cpu0.commit.committed_per_cycle::8      4465036     15.31%    100.00% # Number of insts commited each cycle
system.cpu0.commit.committed_per_cycle::overflows            0      0.00%    100.00% # Number of insts commited each cycle
system.cpu0.commit.committed_per_cycle::min_value            0                       # Number of insts commited each cycle
system.cpu0.commit.committed_per_cycle::max_value            8                       # Number of insts commited each cycle
system.cpu0.commit.committed_per_cycle::total     29170240                       # Number of insts commited each cycle
system.cpu0.commit.committedInsts            37124102                       # Number of instructions committed
system.cpu0.commit.committedOps              65913900                       # Number of ops (including micro ops) committed
system.cpu0.commit.swp_count                        0                       # Number of s/w prefetches committed
system.cpu0.commit.refs                      10214509                       # Number of memory references committed
system.cpu0.commit.loads                      8116588                       # Number of loads committed
system.cpu0.commit.membars                          0                       # Number of memory barriers committed
system.cpu0.commit.branches                   4611012                       # Number of branches committed
system.cpu0.commit.vec_insts                        0                       # Number of committed Vector instructions.
system.cpu0.commit.fp_insts                  34080813                       # Number of committed floating point instructions.
system.cpu0.commit.int_insts                 40921787                       # Number of committed integer instructions.
system.cpu0.commit.function_calls              627253                       # Number of function calls committed.
system.cpu0.commit.op_class_0::No_OpClass         5988      0.01%      0.01% # Class of committed instruction
system.cpu0.commit.op_class_0::IntAlu        34262194     51.98%     51.99% # Class of committed instruction
system.cpu0.commit.op_class_0::IntMult              0      0.00%     51.99% # Class of committed instruction
system.cpu0.commit.op_class_0::IntDiv               0      0.00%     51.99% # Class of committed instruction
system.cpu0.commit.op_class_0::FloatAdd      21431209     32.51%     84.50% # Class of committed instruction
system.cpu0.commit.op_class_0::FloatCmp             0      0.00%     84.50% # Class of committed instruction
system.cpu0.commit.op_class_0::FloatCvt             0      0.00%     84.50% # Class of committed instruction
system.cpu0.commit.op_class_0::FloatMult            0      0.00%     84.50% # Class of committed instruction
system.cpu0.commit.op_class_0::FloatMultAcc            0      0.00%     84.50% # Class of committed instruction
system.cpu0.commit.op_class_0::FloatDiv             0      0.00%     84.50% # Class of committed instruction
system.cpu0.commit.op_class_0::FloatMisc            0      0.00%     84.50% # Class of committed instruction
system.cpu0.commit.op_class_0::FloatSqrt            0      0.00%     84.50% # Class of committed instruction
system.cpu0.commit.op_class_0::SimdAdd              0      0.00%     84.50% # Class of committed instruction
system.cpu0.commit.op_class_0::SimdAddAcc            0      0.00%     84.50% # Class of committed instruction
system.cpu0.commit.op_class_0::SimdAlu              0      0.00%     84.50% # Class of committed instruction
system.cpu0.commit.op_class_0::SimdCmp              0      0.00%     84.50% # Class of committed instruction
system.cpu0.commit.op_class_0::SimdCvt              0      0.00%     84.50% # Class of committed instruction
system.cpu0.commit.op_class_0::SimdMisc             0      0.00%     84.50% # Class of committed instruction
system.cpu0.commit.op_class_0::SimdMult             0      0.00%     84.50% # Class of committed instruction
system.cpu0.commit.op_class_0::SimdMultAcc            0      0.00%     84.50% # Class of committed instruction
system.cpu0.commit.op_class_0::SimdShift            0      0.00%     84.50% # Class of committed instruction
system.cpu0.commit.op_class_0::SimdShiftAcc            0      0.00%     84.50% # Class of committed instruction
system.cpu0.commit.op_class_0::SimdSqrt             0      0.00%     84.50% # Class of committed instruction
system.cpu0.commit.op_class_0::SimdFloatAdd            0      0.00%     84.50% # Class of committed instruction
system.cpu0.commit.op_class_0::SimdFloatAlu            0      0.00%     84.50% # Class of committed instruction
system.cpu0.commit.op_class_0::SimdFloatCmp            0      0.00%     84.50% # Class of committed instruction
system.cpu0.commit.op_class_0::SimdFloatCvt            0      0.00%     84.50% # Class of committed instruction
system.cpu0.commit.op_class_0::SimdFloatDiv            0      0.00%     84.50% # Class of committed instruction
system.cpu0.commit.op_class_0::SimdFloatMisc            0      0.00%     84.50% # Class of committed instruction
system.cpu0.commit.op_class_0::SimdFloatMult            0      0.00%     84.50% # Class of committed instruction
system.cpu0.commit.op_class_0::SimdFloatMultAcc            0      0.00%     84.50% # Class of committed instruction
system.cpu0.commit.op_class_0::SimdFloatSqrt            0      0.00%     84.50% # Class of committed instruction
system.cpu0.commit.op_class_0::MemRead        1949083      2.96%     87.46% # Class of committed instruction
system.cpu0.commit.op_class_0::MemWrite       1470664      2.23%     89.69% # Class of committed instruction
system.cpu0.commit.op_class_0::FloatMemRead      6167505      9.36%     99.05% # Class of committed instruction
system.cpu0.commit.op_class_0::FloatMemWrite       627257      0.95%    100.00% # Class of committed instruction
system.cpu0.commit.op_class_0::IprAccess            0      0.00%    100.00% # Class of committed instruction
system.cpu0.commit.op_class_0::InstPrefetch            0      0.00%    100.00% # Class of committed instruction
system.cpu0.commit.op_class_0::total         65913900                       # Class of committed instruction
system.cpu0.commit.bw_lim_events              4465036                       # number cycles where commit BW limit reached
system.cpu0.rob.rob_reads                   101286993                       # The number of ROB reads
system.cpu0.rob.rob_writes                  154528040                       # The number of ROB writes
system.cpu0.committedInsts                   37124102                       # Number of Instructions Simulated
system.cpu0.committedOps                     65913900                       # Number of Ops (including micro ops) Simulated
system.cpu0.cpi                              0.822503                       # CPI: Cycles Per Instruction
system.cpu0.cpi_total                        0.822503                       # CPI: Total CPI of All Threads
system.cpu0.ipc                              1.215801                       # IPC: Instructions Per Cycle
system.cpu0.ipc_total                        1.215801                       # IPC: Total IPC of All Threads
system.cpu0.int_regfile_reads                56227614                       # number of integer regfile reads
system.cpu0.int_regfile_writes               28618783                       # number of integer regfile writes
system.cpu0.fp_regfile_reads                 64833904                       # number of floating regfile reads
system.cpu0.fp_regfile_writes                33340305                       # number of floating regfile writes
system.cpu0.cc_regfile_reads                 20614520                       # number of cc regfile reads
system.cpu0.cc_regfile_writes                13421268                       # number of cc regfile writes
system.cpu0.misc_regfile_reads               24175728                       # number of misc regfile reads
system.cpu0.dcache.tags.pwrStateResidencyTicks::UNDEFINED  15267344125                       # Cumulative time (in ticks) in various power states
system.cpu0.dcache.tags.replacements            14272                       # number of replacements
system.cpu0.dcache.tags.tagsinuse                1024                       # Cycle average of tags in use
system.cpu0.dcache.tags.total_refs            1089978                       # Total number of references to valid blocks.
system.cpu0.dcache.tags.sampled_refs            14272                       # Sample count of references to valid blocks.
system.cpu0.dcache.tags.avg_refs            76.371777                       # Average number of references to valid blocks.
system.cpu0.dcache.tags.warmup_cycle                0                       # Cycle when the warmup percentage was hit.
system.cpu0.dcache.tags.occ_blocks::cpu0.data         1024                       # Average occupied blocks per requestor
system.cpu0.dcache.tags.occ_percent::cpu0.data            1                       # Average percentage of cache occupancy
system.cpu0.dcache.tags.occ_percent::total            1                       # Average percentage of cache occupancy
system.cpu0.dcache.tags.occ_task_id_blocks::1024         1024                       # Occupied blocks per task id
system.cpu0.dcache.tags.age_task_id_blocks_1024::0            8                       # Occupied blocks per task id
system.cpu0.dcache.tags.age_task_id_blocks_1024::1           85                       # Occupied blocks per task id
system.cpu0.dcache.tags.age_task_id_blocks_1024::2          687                       # Occupied blocks per task id
system.cpu0.dcache.tags.age_task_id_blocks_1024::3           24                       # Occupied blocks per task id
system.cpu0.dcache.tags.age_task_id_blocks_1024::4          220                       # Occupied blocks per task id
system.cpu0.dcache.tags.occ_task_id_percent::1024            1                       # Percentage of cache occupancy per task id
system.cpu0.dcache.tags.tag_accesses         42468400                       # Number of tag accesses
system.cpu0.dcache.tags.data_accesses        42468400                       # Number of data accesses
system.cpu0.dcache.pwrStateResidencyTicks::UNDEFINED  15267344125                       # Cumulative time (in ticks) in various power states
system.cpu0.dcache.ReadReq_hits::cpu0.data      8501276                       # number of ReadReq hits
system.cpu0.dcache.ReadReq_hits::total        8501276                       # number of ReadReq hits
system.cpu0.dcache.WriteReq_hits::cpu0.data      2097921                       # number of WriteReq hits
system.cpu0.dcache.WriteReq_hits::total       2097921                       # number of WriteReq hits
system.cpu0.dcache.demand_hits::cpu0.data     10599197                       # number of demand (read+write) hits
system.cpu0.dcache.demand_hits::total        10599197                       # number of demand (read+write) hits
system.cpu0.dcache.overall_hits::cpu0.data     10599197                       # number of overall hits
system.cpu0.dcache.overall_hits::total       10599197                       # number of overall hits
system.cpu0.dcache.ReadReq_misses::cpu0.data        14335                       # number of ReadReq misses
system.cpu0.dcache.ReadReq_misses::total        14335                       # number of ReadReq misses
system.cpu0.dcache.demand_misses::cpu0.data        14335                       # number of demand (read+write) misses
system.cpu0.dcache.demand_misses::total         14335                       # number of demand (read+write) misses
system.cpu0.dcache.overall_misses::cpu0.data        14335                       # number of overall misses
system.cpu0.dcache.overall_misses::total        14335                       # number of overall misses
system.cpu0.dcache.ReadReq_miss_latency::cpu0.data   1359034000                       # number of ReadReq miss cycles
system.cpu0.dcache.ReadReq_miss_latency::total   1359034000                       # number of ReadReq miss cycles
system.cpu0.dcache.demand_miss_latency::cpu0.data   1359034000                       # number of demand (read+write) miss cycles
system.cpu0.dcache.demand_miss_latency::total   1359034000                       # number of demand (read+write) miss cycles
system.cpu0.dcache.overall_miss_latency::cpu0.data   1359034000                       # number of overall miss cycles
system.cpu0.dcache.overall_miss_latency::total   1359034000                       # number of overall miss cycles
system.cpu0.dcache.ReadReq_accesses::cpu0.data      8515611                       # number of ReadReq accesses(hits+misses)
system.cpu0.dcache.ReadReq_accesses::total      8515611                       # number of ReadReq accesses(hits+misses)
system.cpu0.dcache.WriteReq_accesses::cpu0.data      2097921                       # number of WriteReq accesses(hits+misses)
system.cpu0.dcache.WriteReq_accesses::total      2097921                       # number of WriteReq accesses(hits+misses)
system.cpu0.dcache.demand_accesses::cpu0.data     10613532                       # number of demand (read+write) accesses
system.cpu0.dcache.demand_accesses::total     10613532                       # number of demand (read+write) accesses
system.cpu0.dcache.overall_accesses::cpu0.data     10613532                       # number of overall (read+write) accesses
system.cpu0.dcache.overall_accesses::total     10613532                       # number of overall (read+write) accesses
system.cpu0.dcache.ReadReq_miss_rate::cpu0.data     0.001683                       # miss rate for ReadReq accesses
system.cpu0.dcache.ReadReq_miss_rate::total     0.001683                       # miss rate for ReadReq accesses
system.cpu0.dcache.demand_miss_rate::cpu0.data     0.001351                       # miss rate for demand accesses
system.cpu0.dcache.demand_miss_rate::total     0.001351                       # miss rate for demand accesses
system.cpu0.dcache.overall_miss_rate::cpu0.data     0.001351                       # miss rate for overall accesses
system.cpu0.dcache.overall_miss_rate::total     0.001351                       # miss rate for overall accesses
system.cpu0.dcache.ReadReq_avg_miss_latency::cpu0.data 94805.301709                       # average ReadReq miss latency
system.cpu0.dcache.ReadReq_avg_miss_latency::total 94805.301709                       # average ReadReq miss latency
system.cpu0.dcache.demand_avg_miss_latency::cpu0.data 94805.301709                       # average overall miss latency
system.cpu0.dcache.demand_avg_miss_latency::total 94805.301709                       # average overall miss latency
system.cpu0.dcache.overall_avg_miss_latency::cpu0.data 94805.301709                       # average overall miss latency
system.cpu0.dcache.overall_avg_miss_latency::total 94805.301709                       # average overall miss latency
system.cpu0.dcache.blocked_cycles::no_mshrs            0                       # number of cycles access was blocked
system.cpu0.dcache.blocked_cycles::no_targets            0                       # number of cycles access was blocked
system.cpu0.dcache.blocked::no_mshrs                0                       # number of cycles access was blocked
system.cpu0.dcache.blocked::no_targets              0                       # number of cycles access was blocked
system.cpu0.dcache.avg_blocked_cycles::no_mshrs          nan                       # average number of cycles each access was blocked
system.cpu0.dcache.avg_blocked_cycles::no_targets          nan                       # average number of cycles each access was blocked
system.cpu0.dcache.writebacks::writebacks        13449                       # number of writebacks
system.cpu0.dcache.writebacks::total            13449                       # number of writebacks
system.cpu0.dcache.ReadReq_mshr_hits::cpu0.data           63                       # number of ReadReq MSHR hits
system.cpu0.dcache.ReadReq_mshr_hits::total           63                       # number of ReadReq MSHR hits
system.cpu0.dcache.demand_mshr_hits::cpu0.data           63                       # number of demand (read+write) MSHR hits
system.cpu0.dcache.demand_mshr_hits::total           63                       # number of demand (read+write) MSHR hits
system.cpu0.dcache.overall_mshr_hits::cpu0.data           63                       # number of overall MSHR hits
system.cpu0.dcache.overall_mshr_hits::total           63                       # number of overall MSHR hits
system.cpu0.dcache.ReadReq_mshr_misses::cpu0.data        14272                       # number of ReadReq MSHR misses
system.cpu0.dcache.ReadReq_mshr_misses::total        14272                       # number of ReadReq MSHR misses
system.cpu0.dcache.demand_mshr_misses::cpu0.data        14272                       # number of demand (read+write) MSHR misses
system.cpu0.dcache.demand_mshr_misses::total        14272                       # number of demand (read+write) MSHR misses
[...]
system.cpu1.itb_walker_cache.avg_blocked_cycles::no_mshrs          nan                       # average number of cycles each access was blocked
system.cpu1.itb_walker_cache.avg_blocked_cycles::no_targets          nan                       # average number of cycles each access was blocked
system.l2.tags.pwrStateResidencyTicks::UNDEFINED  15267344125                       # Cumulative time (in ticks) in various power states
system.l2.tags.replacements                     14249                       # number of replacements
system.l2.tags.tagsinuse                        16384                       # Cycle average of tags in use
system.l2.tags.total_refs                       14249                       # Total number of references to valid blocks.
system.l2.tags.sampled_refs                     14249                       # Sample count of references to valid blocks.
system.l2.tags.avg_refs                             1                       # Average number of references to valid blocks.
system.l2.tags.warmup_cycle                         0                       # Cycle when the warmup percentage was hit.
system.l2.tags.occ_blocks::cpu0.data            16384                       # Average occupied blocks per requestor
system.l2.tags.occ_percent::cpu0.data               1                       # Average percentage of cache occupancy
system.l2.tags.occ_percent::total                   1                       # Average percentage of cache occupancy
system.l2.tags.occ_task_id_blocks::1024         16384                       # Occupied blocks per task id
system.l2.tags.age_task_id_blocks_1024::0            8                       # Occupied blocks per task id
system.l2.tags.age_task_id_blocks_1024::1           84                       # Occupied blocks per task id
system.l2.tags.age_task_id_blocks_1024::2          839                       # Occupied blocks per task id
system.l2.tags.age_task_id_blocks_1024::3         8402                       # Occupied blocks per task id
system.l2.tags.age_task_id_blocks_1024::4         7051                       # Occupied blocks per task id
system.l2.tags.occ_task_id_percent::1024            1                       # Percentage of cache occupancy per task id
system.l2.tags.tag_accesses                    242601                       # Number of tag accesses
system.l2.tags.data_accesses                   242601                       # Number of data accesses
system.l2.pwrStateResidencyTicks::UNDEFINED  15267344125                       # Cumulative time (in ticks) in various power states
system.l2.WritebackDirty_hits::writebacks        13449                       # number of WritebackDirty hits
system.l2.WritebackDirty_hits::total            13449                       # number of WritebackDirty hits
system.l2.ReadSharedReq_hits::cpu0.data            23                       # number of ReadSharedReq hits
system.l2.ReadSharedReq_hits::total                23                       # number of ReadSharedReq hits
system.l2.demand_hits::cpu0.data                   23                       # number of demand (read+write) hits
system.l2.demand_hits::total                       23                       # number of demand (read+write) hits
system.l2.overall_hits::cpu0.data                  23                       # number of overall hits
system.l2.overall_hits::total                      23                       # number of overall hits
system.l2.ReadSharedReq_misses::cpu0.data        14249                       # number of ReadSharedReq misses
system.l2.ReadSharedReq_misses::total           14249                       # number of ReadSharedReq misses
system.l2.demand_misses::cpu0.data              14249                       # number of demand (read+write) misses
system.l2.demand_misses::total                  14249                       # number of demand (read+write) misses
system.l2.overall_misses::cpu0.data             14249                       # number of overall misses
system.l2.overall_misses::total                 14249                       # number of overall misses
system.l2.ReadSharedReq_miss_latency::cpu0.data   1318706000                       # number of ReadSharedReq miss cycles
system.l2.ReadSharedReq_miss_latency::total   1318706000                       # number of ReadSharedReq miss cycles
system.l2.demand_miss_latency::cpu0.data   1318706000                       # number of demand (read+write) miss cycles
system.l2.demand_miss_latency::total       1318706000                       # number of demand (read+write) miss cycles
system.l2.overall_miss_latency::cpu0.data   1318706000                       # number of overall miss cycles
system.l2.overall_miss_latency::total      1318706000                       # number of overall miss cycles
system.l2.WritebackDirty_accesses::writebacks        13449                       # number of WritebackDirty accesses(hits+misses)
system.l2.WritebackDirty_accesses::total        13449                       # number of WritebackDirty accesses(hits+misses)
system.l2.ReadSharedReq_accesses::cpu0.data        14272                       # number of ReadSharedReq accesses(hits+misses)
system.l2.ReadSharedReq_accesses::total         14272                       # number of ReadSharedReq accesses(hits+misses)
system.l2.demand_accesses::cpu0.data            14272                       # number of demand (read+write) accesses
system.l2.demand_accesses::total                14272                       # number of demand (read+write) accesses
system.l2.overall_accesses::cpu0.data           14272                       # number of overall (read+write) accesses
system.l2.overall_accesses::total               14272                       # number of overall (read+write) accesses
system.l2.ReadSharedReq_miss_rate::cpu0.data     0.998388                       # miss rate for ReadSharedReq accesses
system.l2.ReadSharedReq_miss_rate::total     0.998388                       # miss rate for ReadSharedReq accesses
system.l2.demand_miss_rate::cpu0.data        0.998388                       # miss rate for demand accesses
system.l2.demand_miss_rate::total            0.998388                       # miss rate for demand accesses
system.l2.overall_miss_rate::cpu0.data       0.998388                       # miss rate for overall accesses
system.l2.overall_miss_rate::total           0.998388                       # miss rate for overall accesses
system.l2.ReadSharedReq_avg_miss_latency::cpu0.data 92547.266475                       # average ReadSharedReq miss latency
system.l2.ReadSharedReq_avg_miss_latency::total 92547.266475                       # average ReadSharedReq miss latency
system.l2.demand_avg_miss_latency::cpu0.data 92547.266475                       # average overall miss latency
system.l2.demand_avg_miss_latency::total 92547.266475                       # average overall miss latency
system.l2.overall_avg_miss_latency::cpu0.data 92547.266475                       # average overall miss latency
system.l2.overall_avg_miss_latency::total 92547.266475                       # average overall miss latency
system.l2.blocked_cycles::no_mshrs                  0                       # number of cycles access was blocked
system.l2.blocked_cycles::no_targets                0                       # number of cycles access was blocked
system.l2.blocked::no_mshrs                         0                       # number of cycles access was blocked
system.l2.blocked::no_targets                       0                       # number of cycles access was blocked
system.l2.avg_blocked_cycles::no_mshrs            nan                       # average number of cycles each access was blocked
system.l2.avg_blocked_cycles::no_targets          nan                       # average number of cycles each access was blocked
system.l2.writebacks::writebacks                13424                       # number of writebacks
system.l2.writebacks::total                     13424                       # number of writebacks
system.l2.CleanEvict_mshr_misses::writebacks            1                       # number of CleanEvict MSHR misses
system.l2.CleanEvict_mshr_misses::total             1                       # number of CleanEvict MSHR misses
system.l2.ReadSharedReq_mshr_misses::cpu0.data        14249                       # number of ReadSharedReq MSHR misses
system.l2.ReadSharedReq_mshr_misses::total        14249                       # number of ReadSharedReq MSHR misses
system.l2.demand_mshr_misses::cpu0.data         14249                       # number of demand (read+write) MSHR misses
system.l2.demand_mshr_misses::total             14249                       # number of demand (read+write) MSHR misses
system.l2.overall_mshr_misses::cpu0.data        14249                       # number of overall MSHR misses
system.l2.overall_mshr_misses::total            14249                       # number of overall MSHR misses
system.l2.ReadSharedReq_mshr_miss_latency::cpu0.data   1176216000                       # number of ReadSharedReq MSHR miss cycles
system.l2.ReadSharedReq_mshr_miss_latency::total   1176216000                       # number of ReadSharedReq MSHR miss cycles
system.l2.demand_mshr_miss_latency::cpu0.data   1176216000                       # number of demand (read+write) MSHR miss cycles
system.l2.demand_mshr_miss_latency::total   1176216000                       # number of demand (read+write) MSHR miss cycles
system.l2.overall_mshr_miss_latency::cpu0.data   1176216000                       # number of overall MSHR miss cycles
system.l2.overall_mshr_miss_latency::total   1176216000                       # number of overall MSHR miss cycles
system.l2.CleanEvict_mshr_miss_rate::writebacks          inf                       # mshr miss rate for CleanEvict accesses
system.l2.CleanEvict_mshr_miss_rate::total          inf                       # mshr miss rate for CleanEvict accesses
system.l2.ReadSharedReq_mshr_miss_rate::cpu0.data     0.998388                       # mshr miss rate for ReadSharedReq accesses
system.l2.ReadSharedReq_mshr_miss_rate::total     0.998388                       # mshr miss rate for ReadSharedReq accesses
system.l2.demand_mshr_miss_rate::cpu0.data     0.998388                       # mshr miss rate for demand accesses
system.l2.demand_mshr_miss_rate::total       0.998388                       # mshr miss rate for demand accesses
system.l2.overall_mshr_miss_rate::cpu0.data     0.998388                       # mshr miss rate for overall accesses
system.l2.overall_mshr_miss_rate::total      0.998388                       # mshr miss rate for overall accesses
system.l2.ReadSharedReq_avg_mshr_miss_latency::cpu0.data 82547.266475                       # average ReadSharedReq mshr miss latency
system.l2.ReadSharedReq_avg_mshr_miss_latency::total 82547.266475                       # average ReadSharedReq mshr miss latency
system.l2.demand_avg_mshr_miss_latency::cpu0.data 82547.266475                       # average overall mshr miss latency
system.l2.demand_avg_mshr_miss_latency::total 82547.266475                       # average overall mshr miss latency
system.l2.overall_avg_mshr_miss_latency::cpu0.data 82547.266475                       # average overall mshr miss latency
system.l2.overall_avg_mshr_miss_latency::total 82547.266475                       # average overall mshr miss latency
system.membus.snoop_filter.tot_requests         28499                       # Total number of requests made to the snoop filter.
system.membus.snoop_filter.hit_single_requests        14250                       # Number of requests hitting in the snoop filter with a single holder of the requested data.
system.membus.snoop_filter.hit_multi_requests            0                       # Number of requests hitting in the snoop filter with multiple (>1) holders of the requested data.
system.membus.snoop_filter.tot_snoops               0                       # Total number of snoops made to the snoop filter.
system.membus.snoop_filter.hit_single_snoops            0                       # Number of snoops hitting in the snoop filter with a single holder of the requested data.
system.membus.snoop_filter.hit_multi_snoops            0                       # Number of snoops hitting in the snoop filter with multiple (>1) holders of the requested data.
system.membus.pwrStateResidencyTicks::UNDEFINED  15267344125                       # Cumulative time (in ticks) in various power states
system.membus.trans_dist::ReadResp              14249                       # Transaction distribution
system.membus.trans_dist::WritebackDirty        13424                       # Transaction distribution
system.membus.trans_dist::CleanEvict              826                       # Transaction distribution
system.membus.trans_dist::ReadSharedReq         14249                       # Transaction distribution
system.membus.pkt_count_system.l2.mem_side::system.mem_ctrls.port        42748                       # Packet count per connected master and slave (bytes)
system.membus.pkt_count_system.l2.mem_side::total        42748                       # Packet count per connected master and slave (bytes)
system.membus.pkt_count::total                  42748                       # Packet count per connected master and slave (bytes)
system.membus.pkt_size_system.l2.mem_side::system.mem_ctrls.port      1771072                       # Cumulative packet size per connected master and slave (bytes)
system.membus.pkt_size_system.l2.mem_side::total      1771072                       # Cumulative packet size per connected master and slave (bytes)
system.membus.pkt_size::total                 1771072                       # Cumulative packet size per connected master and slave (bytes)
system.membus.snoops                                0                       # Total snoops (count)
system.membus.snoopTraffic                          0                       # Total snoop traffic (bytes)
system.membus.snoop_fanout::samples             14249                       # Request fanout histogram
system.membus.snoop_fanout::mean                    0                       # Request fanout histogram
system.membus.snoop_fanout::stdev                   0                       # Request fanout histogram
system.membus.snoop_fanout::underflows              0      0.00%      0.00% # Request fanout histogram
system.membus.snoop_fanout::0                   14249    100.00%    100.00% # Request fanout histogram
system.membus.snoop_fanout::1                       0      0.00%    100.00% # Request fanout histogram
system.membus.snoop_fanout::overflows               0      0.00%    100.00% # Request fanout histogram
system.membus.snoop_fanout::min_value               0                       # Request fanout histogram
system.membus.snoop_fanout::max_value               0                       # Request fanout histogram
system.membus.snoop_fanout::total               14249                       # Request fanout histogram
system.membus.reqLayer4.occupancy            85820000                       # Layer occupancy (ticks)
system.membus.reqLayer4.utilization               0.6                       # Layer utilization (%)
system.membus.respLayer1.occupancy           75906500                       # Layer occupancy (ticks)
system.membus.respLayer1.utilization              0.5                       # Layer utilization (%)
system.tol2bus.snoop_filter.tot_requests        28544                       # Total number of requests made to the snoop filter.
system.tol2bus.snoop_filter.hit_single_requests        14272                       # Number of requests hitting in the snoop filter with a single holder of the requested data.
system.tol2bus.snoop_filter.hit_multi_requests            0                       # Number of requests hitting in the snoop filter with multiple (>1) holders of the requested data.
system.tol2bus.snoop_filter.tot_snoops              0                       # Total number of snoops made to the snoop filter.
system.tol2bus.snoop_filter.hit_single_snoops            0                       # Number of snoops hitting in the snoop filter with a single holder of the requested data.
system.tol2bus.snoop_filter.hit_multi_snoops            0                       # Number of snoops hitting in the snoop filter with multiple (>1) holders of the requested data.
system.tol2bus.pwrStateResidencyTicks::UNDEFINED  15267344125                       # Cumulative time (in ticks) in various power states
system.tol2bus.trans_dist::ReadResp             14272                       # Transaction distribution
system.tol2bus.trans_dist::WritebackDirty        26873                       # Transaction distribution
system.tol2bus.trans_dist::CleanEvict            1648                       # Transaction distribution
system.tol2bus.trans_dist::ReadSharedReq        14272                       # Transaction distribution
system.tol2bus.pkt_count_system.cpu0.dcache.mem_side::system.l2.cpu_side        42816                       # Packet count per connected master and slave (bytes)
system.tol2bus.pkt_count::total                 42816                       # Packet count per connected master and slave (bytes)
system.tol2bus.pkt_size_system.cpu0.dcache.mem_side::system.l2.cpu_side      1774144                       # Cumulative packet size per connected master and slave (bytes)
system.tol2bus.pkt_size::total                1774144                       # Cumulative packet size per connected master and slave (bytes)
system.tol2bus.snoops                           14249                       # Total snoops (count)
system.tol2bus.snoopTraffic                    859136                       # Total snoop traffic (bytes)
system.tol2bus.snoop_fanout::samples            28521                       # Request fanout histogram
system.tol2bus.snoop_fanout::mean                   0                       # Request fanout histogram
system.tol2bus.snoop_fanout::stdev                  0                       # Request fanout histogram
system.tol2bus.snoop_fanout::underflows             0      0.00%      0.00% # Request fanout histogram
system.tol2bus.snoop_fanout::0                  28521    100.00%    100.00% # Request fanout histogram
system.tol2bus.snoop_fanout::1                      0      0.00%    100.00% # Request fanout histogram
system.tol2bus.snoop_fanout::2                      0      0.00%    100.00% # Request fanout histogram
system.tol2bus.snoop_fanout::3                      0      0.00%    100.00% # Request fanout histogram
system.tol2bus.snoop_fanout::4                      0      0.00%    100.00% # Request fanout histogram
system.tol2bus.snoop_fanout::5                      0      0.00%    100.00% # Request fanout histogram
system.tol2bus.snoop_fanout::6                      0      0.00%    100.00% # Request fanout histogram
system.tol2bus.snoop_fanout::7                      0      0.00%    100.00% # Request fanout histogram
system.tol2bus.snoop_fanout::8                      0      0.00%    100.00% # Request fanout histogram
system.tol2bus.snoop_fanout::overflows              0      0.00%    100.00% # Request fanout histogram
system.tol2bus.snoop_fanout::min_value              0                       # Request fanout histogram
system.tol2bus.snoop_fanout::max_value              0                       # Request fanout histogram
system.tol2bus.snoop_fanout::total              28521                       # Request fanout histogram
system.tol2bus.reqLayer0.occupancy           27721000                       # Layer occupancy (ticks)
system.tol2bus.reqLayer0.utilization              0.2                       # Layer utilization (%)
system.tol2bus.respLayer1.occupancy          21408000                       # Layer occupancy (ticks)
system.tol2bus.respLayer1.utilization             0.1                       # Layer utilization (%)

---------- End Simulation Statistics   ----------
