
---------- Begin Simulation Statistics ----------
sim_seconds                                  0.015267                       # Number of seconds simulated
sim_ticks                                 15267344125                       # Number of ticks simulated
final_tick                               1832081295000                       # Number of ticks from beginning of simulation (restored from checkpoints and never reset)
sim_freq                                 1000000000000                       # Frequency of simulated ticks
host_inst_rate                               18253668                       # Simulator instruction rate (inst/s)
host_op_rate                                 33172021                       # Simulator op (including micro ops) rate (op/s)
host_tick_rate                               68446210                       # Simulator tick rate (ticks/s)
host_mem_usage                                1248940                       # Number of bytes of host memory used
host_seconds                                   223.06                       # Real time elapsed on the host
sim_insts                                  4071591525                       # Number of instructions simulated
sim_ops                                    7399221097                       # Number of ops (including micro ops) simulated
system.voltage_domain.voltage                       1                       # Voltage in Volts
system.clk_domain.clock                          1000                       # Clock period in ticks
system.mem_ctrls.pwrStateResidencyTicks::UNDEFINED  15267344125                       # Cumulative time (in ticks) in various power states
system.mem_ctrls.bytes_read::cpu0.data         913024                       # Number of bytes read from this memory
system.mem_ctrls.bytes_read::total             913024                       # Number of bytes read from this memory
system.mem_ctrls.bytes_written::writebacks       860160                       # Number of bytes written to this memory
system.mem_ctrls.bytes_written::total          860160                       # Number of bytes written to this memory
system.mem_ctrls.num_reads::cpu0.data           14266                       # Number of read requests responded to by this memory
system.mem_ctrls.num_reads::total               14266                       # Number of read requests responded to by this memory
system.mem_ctrls.num_writes::writebacks         13440                       # Number of write requests responded to by this memory
system.mem_ctrls.num_writes::total              13440                       # Number of write requests responded to by this memory
system.mem_ctrls.bw_read::cpu0.data          59802412                       # Total read bandwidth from this memory (bytes/s)
system.mem_ctrls.bw_read::total              59802412                       # Total read bandwidth from this memory (bytes/s)
system.mem_ctrls.bw_write::writebacks        56339858                       # Write bandwidth from this memory (bytes/s)
system.mem_ctrls.bw_write::total             56339858                       # Write bandwidth from this memory (bytes/s)
system.mem_ctrls.bw_total::writebacks        56339858                       # Total bandwidth to/from this memory (bytes/s)
system.mem_ctrls.bw_total::cpu0.data         59802412                       # Total bandwidth to/from this memory (bytes/s)
system.mem_ctrls.bw_total::total            116142270                       # Total bandwidth to/from this memory (bytes/s)
system.mem_ctrls.readReqs                       14266                       # Number of read requests accepted
system.mem_ctrls.writeReqs                      13440                       # Number of write requests accepted
system.mem_ctrls.readBursts                     14266                       # Number of DRAM read bursts, including those serviced by the write queue
system.mem_ctrls.writeBursts                    13440                       # Number of DRAM write bursts, including those merged in the write queue
system.mem_ctrls.bytesReadDRAM                 913024                       # Total number of bytes read from DRAM
system.mem_ctrls.bytesReadWrQ                       0                       # Total number of bytes read from write queue
system.mem_ctrls.bytesWritten                  860352                       # Total number of bytes written to DRAM
system.mem_ctrls.bytesReadSys                  913024                       # Total read bytes from the system interface side
system.mem_ctrls.bytesWrittenSys               860160                       # Total written bytes from the system interface side
system.mem_ctrls.servicedByWrQ                      0                       # Number of DRAM read bursts serviced by the write queue
system.mem_ctrls.mergedWrBursts                     0                       # Number of DRAM write bursts merged with an existing one
system.mem_ctrls.neitherReadNorWriteReqs            0                       # Number of requests that are neither read nor write
system.mem_ctrls.perBankRdBursts::0               774                       # Per bank write bursts
system.mem_ctrls.perBankRdBursts::1               768                       # Per bank write bursts
system.mem_ctrls.perBankRdBursts::2               768                       # Per bank write bursts
system.mem_ctrls.perBankRdBursts::3               893                       # Per bank write bursts
system.mem_ctrls.perBankRdBursts::4               899                       # Per bank write bursts
system.mem_ctrls.perBankRdBursts::5               954                       # Per bank write bursts
system.mem_ctrls.perBankRdBursts::6              1025                       # Per bank write bursts
system.mem_ctrls.perBankRdBursts::7              1025                       # Per bank write bursts
system.mem_ctrls.perBankRdBursts::8              1024                       # Per bank write bursts
system.mem_ctrls.perBankRdBursts::9               967                       # Per bank write bursts
system.mem_ctrls.perBankRdBursts::10             1062                       # Per bank write bursts
system.mem_ctrls.perBankRdBursts::11              950                       # Per bank write bursts
system.mem_ctrls.perBankRdBursts::12              837                       # Per bank write bursts
system.mem_ctrls.perBankRdBursts::13              768                       # Per bank write bursts
system.mem_ctrls.perBankRdBursts::14              768                       # Per bank write bursts
system.mem_ctrls.perBankRdBursts::15              784                       # Per bank write bursts
system.mem_ctrls.perBankWrBursts::0               646                       # Per bank write bursts
system.mem_ctrls.perBankWrBursts::1               640                       # Per bank write bursts
system.mem_ctrls.perBankWrBursts::2               664                       # Per bank write bursts
system.mem_ctrls.perBankWrBursts::3               768                       # Per bank write bursts
system.mem_ctrls.perBankWrBursts::4               754                       # Per bank write bursts
system.mem_ctrls.perBankWrBursts::5               934                       # Per bank write bursts
system.mem_ctrls.perBankWrBursts::6              1023                       # Per bank write bursts
system.mem_ctrls.perBankWrBursts::7              1024                       # Per bank write bursts
system.mem_ctrls.perBankWrBursts::8              1024                       # Per bank write bursts
system.mem_ctrls.perBankWrBursts::9               916                       # Per bank write bursts
system.mem_ctrls.perBankWrBursts::10             1034                       # Per bank write bursts
system.mem_ctrls.perBankWrBursts::11              948                       # Per bank write bursts
system.mem_ctrls.perBankWrBursts::12              836                       # Per bank write bursts
system.mem_ctrls.perBankWrBursts::13              768                       # Per bank write bursts
system.mem_ctrls.perBankWrBursts::14              768                       # Per bank write bursts
system.mem_ctrls.perBankWrBursts::15              696                       # Per bank write bursts
system.mem_ctrls.numRdRetry                         0                       # Number of times read queue was full causing retry
system.mem_ctrls.numWrRetry                         0                       # Number of times write queue was full causing retry
system.mem_ctrls.totGap                   15268371000                       # Total gap between requests
system.mem_ctrls.readPktSize::0                     0                       # Read request sizes (log2)
system.mem_ctrls.readPktSize::1                     0                       # Read request sizes (log2)
system.mem_ctrls.readPktSize::2                     0                       # Read request sizes (log2)
system.mem_ctrls.readPktSize::3                     0                       # Read request sizes (log2)
system.mem_ctrls.readPktSize::4                     0                       # Read request sizes (log2)
system.mem_ctrls.readPktSize::5                     0                       # Read request sizes (log2)
system.mem_ctrls.readPktSize::6                 14266                       # Read request sizes (log2)
system.mem_ctrls.writePktSize::0                    0                       # Write request sizes (log2)
system.mem_ctrls.writePktSize::1                    0                       # Write request sizes (log2)
system.mem_ctrls.writePktSize::2                    0                       # Write request sizes (log2)
system.mem_ctrls.writePktSize::3                    0                       # Write request sizes (log2)
system.mem_ctrls.writePktSize::4                    0                       # Write request sizes (log2)
system.mem_ctrls.writePktSize::5                    0                       # Write request sizes (log2)
system.mem_ctrls.writePktSize::6                13440                       # Write request sizes (log2)
system.mem_ctrls.rdQLenPdf::0                   14263                       # What read queue length does an incoming req see
system.mem_ctrls.rdQLenPdf::1                       3                       # What read queue length does an incoming req see
system.mem_ctrls.rdQLenPdf::2                       0                       # What read queue length does an incoming req see
system.mem_ctrls.rdQLenPdf::3                       0                       # What read queue length does an incoming req see
system.mem_ctrls.rdQLenPdf::4                       0                       # What read queue length does an incoming req see
system.mem_ctrls.rdQLenPdf::5                       0                       # What read queue length does an incoming req see
system.mem_ctrls.rdQLenPdf::6                       0                       # What read queue length does an incoming req see
system.mem_ctrls.rdQLenPdf::7                       0                       # What read queue length does an incoming req see
system.mem_ctrls.rdQLenPdf::8                       0                       # What read queue length does an incoming req see
system.mem_ctrls.rdQLenPdf::9                       0                       # What read queue length does an incoming req see
system.mem_ctrls.rdQLenPdf::10                      0                       # What read queue length does an incoming req see
system.mem_ctrls.rdQLenPdf::11                      0                       # What read queue length does an incoming req see
system.mem_ctrls.rdQLenPdf::12                      0                       # What read queue length does an incoming req see
system.mem_ctrls.rdQLenPdf::13                      0                       # What read queue length does an incoming req see
system.mem_ctrls.rdQLenPdf::14                      0                       # What read queue length does an incoming req see
system.mem_ctrls.rdQLenPdf::15                      0                       # What read queue length does an incoming req see
system.mem_ctrls.rdQLenPdf::16                      0                       # What read queue length does an incoming req see
system.mem_ctrls.rdQLenPdf::17                      0                       # What read queue length does an incoming req see
system.mem_ctrls.rdQLenPdf::18                      0                       # What read queue length does an incoming req see
system.mem_ctrls.rdQLenPdf::19                      0                       # What read queue length does an incoming req see
system.mem_ctrls.rdQLenPdf::20                      0                       # What read queue length does an incoming req see
system.mem_ctrls.rdQLenPdf::21                      0                       # What read queue length does an incoming req see
system.mem_ctrls.rdQLenPdf::22                      0                       # What read queue length does an incoming req see
system.mem_ctrls.rdQLenPdf::23                      0                       # What read queue length does an incoming req see
system.mem_ctrls.rdQLenPdf::24                      0                       # What read queue length does an incoming req see
system.mem_ctrls.rdQLenPdf::25                      0                       # What read queue length does an incoming req see
system.mem_ctrls.rdQLenPdf::26                      0                       # What read queue length does an incoming req see
system.mem_ctrls.rdQLenPdf::27                      0                       # What read queue length does an incoming req see
system.mem_ctrls.rdQLenPdf::28                      0                       # What read queue length does an incoming req see
system.mem_ctrls.rdQLenPdf::29                      0                       # What read queue length does an incoming req see
system.mem_ctrls.rdQLenPdf::30                      0                       # What read queue length does an incoming req see
system.mem_ctrls.rdQLenPdf::31                      0                       # What read queue length does an incoming req see
system.mem_ctrls.wrQLenPdf::0                       0                       # What write queue length does an incoming req see
system.mem_ctrls.wrQLenPdf::1                       0                       # What write queue length does an incoming req see
system.mem_ctrls.wrQLenPdf::2                       0                       # What write queue length does an incoming req see
system.mem_ctrls.wrQLenPdf::3                       0                       # What write queue length does an incoming req see
system.mem_ctrls.wrQLenPdf::4                       0                       # What write queue length does an incoming req see
system.mem_ctrls.wrQLenPdf::5                       0                       # What write queue length does an incoming req see
system.mem_ctrls.wrQLenPdf::6                       0                       # What write queue length does an incoming req see
system.mem_ctrls.wrQLenPdf::7                       0                       # What write queue length does an incoming req see
system.mem_ctrls.wrQLenPdf::8                       0                       # What write queue length does an incoming req see
system.mem_ctrls.wrQLenPdf::9                       0                       # What write queue length does an incoming req see
system.mem_ctrls.wrQLenPdf::10                      0                       # What write queue length does an incoming req see
system.mem_ctrls.wrQLenPdf::11                      0                       # What write queue length does an incoming req see
system.mem_ctrls.wrQLenPdf::12                      0                       # What write queue length does an incoming req see
system.mem_ctrls.wrQLenPdf::13                      0                       # What write queue length does an incoming req see
system.mem_ctrls.wrQLenPdf::14                      0                       # What write queue length does an incoming req see
system.mem_ctrls.wrQLenPdf::15                    729                       # What write queue length does an incoming req see
system.mem_ctrls.wrQLenPdf::16                    730                       # What write queue length does an incoming req see
system.mem_ctrls.wrQLenPdf::17                    749                       # What write queue length does an incoming req see
system.mem_ctrls.wrQLenPdf::18                    749                       # What write queue length does an incoming req see
system.mem_ctrls.wrQLenPdf::19                    749                       # What write queue length does an incoming req see
system.mem_ctrls.wrQLenPdf::20                    749                       # What write queue length does an incoming req see
system.mem_ctrls.wrQLenPdf::21                    749                       # What write queue length does an incoming req see
system.mem_ctrls.wrQLenPdf::22                    749                       # What write queue length does an incoming req see
system.mem_ctrls.wrQLenPdf::23                    749                       # What write queue length does an incoming req see
system.mem_ctrls.wrQLenPdf::24                    749                       # What write queue length does an incoming req see
system.mem_ctrls.wrQLenPdf::25                    749                       # What write queue length does an incoming req see
system.mem_ctrls.wrQLenPdf::26                    749                       # What write queue length does an incoming req see
system.mem_ctrls.wrQLenPdf::27                    749                       # What write queue length does an incoming req see
system.mem_ctrls.wrQLenPdf::28                    749                       # What write queue length does an incoming req see
system.mem_ctrls.wrQLenPdf::29                    748                       # What write queue length does an incoming req see
system.mem_ctrls.wrQLenPdf::30                    748                       # What write queue length does an incoming req see
system.mem_ctrls.wrQLenPdf::31                    748                       # What write queue length does an incoming req see
system.mem_ctrls.wrQLenPdf::32                    749                       # What write queue length does an incoming req see
system.mem_ctrls.wrQLenPdf::33                      0                       # What write queue length does an incoming req see
system.mem_ctrls.wrQLenPdf::34                      0                       # What write queue length does an incoming req see
system.mem_ctrls.wrQLenPdf::35                      0                       # What write queue length does an incoming req see
system.mem_ctrls.wrQLenPdf::36                      0                       # What write queue length does an incoming req see
system.mem_ctrls.wrQLenPdf::37                      0                       # What write queue length does an incoming req see
system.mem_ctrls.wrQLenPdf::38                      0                       # What write queue length does an incoming req see
system.mem_ctrls.wrQLenPdf::39                      0                       # What write queue length does an incoming req see
system.mem_ctrls.wrQLenPdf::40                      0                       # What write queue length does an incoming req see
system.mem_ctrls.wrQLenPdf::41                      0                       # What write queue length does an incoming req see
system.mem_ctrls.wrQLenPdf::42                      0                       # What write queue length does an incoming req see
system.mem_ctrls.wrQLenPdf::43                      0                       # What write queue length does an incoming req see
system.mem_ctrls.wrQLenPdf::44                      0                       # What write queue length does an incoming req see
system.mem_ctrls.wrQLenPdf::45                      0                       # What write queue length does an incoming req see
system.mem_ctrls.wrQLenPdf::46                      0                       # What write queue length does an incoming req see
system.mem_ctrls.wrQLenPdf::47                      0                       # What write queue length does an incoming req see
system.mem_ctrls.wrQLenPdf::48                      0                       # What write queue length does an incoming req see
system.mem_ctrls.wrQLenPdf::49                      0                       # What write queue length does an incoming req see
system.mem_ctrls.wrQLenPdf::50                      0                       # What write queue length does an incoming req see
system.mem_ctrls.wrQLenPdf::51                      0                       # What write queue length does an incoming req see
system.mem_ctrls.wrQLenPdf::52                      0                       # What write queue length does an incoming req see
system.mem_ctrls.wrQLenPdf::53                      0                       # What write queue length does an incoming req see
system.mem_ctrls.wrQLenPdf::54                      0                       # What write queue length does an incoming req see
system.mem_ctrls.wrQLenPdf::55                      0                       # What write queue length does an incoming req see
system.mem_ctrls.wrQLenPdf::56                      0                       # What write queue length does an incoming req see
system.mem_ctrls.wrQLenPdf::57                      0                       # What write queue length does an incoming req see
system.mem_ctrls.wrQLenPdf::58                      0                       # What write queue length does an incoming req see
system.mem_ctrls.wrQLenPdf::59                      0                       # What write queue length does an incoming req see
system.mem_ctrls.wrQLenPdf::60                      0                       # What write queue length does an incoming req see
system.mem_ctrls.wrQLenPdf::61                      0                       # What write queue length does an incoming req see
system.mem_ctrls.wrQLenPdf::62                      0                       # What write queue length does an incoming req see
system.mem_ctrls.wrQLenPdf::63                      0                       # What write queue length does an incoming req see
system.mem_ctrls.bytesPerActivate::samples         5977                       # Bytes accessed per row activation
system.mem_ctrls.bytesPerActivate::mean    296.742848                       # Bytes accessed per row activation
system.mem_ctrls.bytesPerActivate::gmean   184.552151                       # Bytes accessed per row activation
system.mem_ctrls.bytesPerActivate::stdev   291.146530                       # Bytes accessed per row activation
system.mem_ctrls.bytesPerActivate::0-127         2379     39.80%     39.80% # Bytes accessed per row activation
system.mem_ctrls.bytesPerActivate::128-255          807     13.50%     53.30% # Bytes accessed per row activation
system.mem_ctrls.bytesPerActivate::256-383          582      9.74%     63.04% # Bytes accessed per row activation
system.mem_ctrls.bytesPerActivate::384-511         1448     24.23%     87.27% # Bytes accessed per row activation
system.mem_ctrls.bytesPerActivate::512-639           44      0.74%     88.00% # Bytes accessed per row activation
system.mem_ctrls.bytesPerActivate::640-767           62      1.04%     89.04% # Bytes accessed per row activation
system.mem_ctrls.bytesPerActivate::768-895           45      0.75%     89.79% # Bytes accessed per row activation
system.mem_ctrls.bytesPerActivate::896-1023           80      1.34%     91.13% # Bytes accessed per row activation
system.mem_ctrls.bytesPerActivate::1024-1151          530      8.87%    100.00% # Bytes accessed per row activation
system.mem_ctrls.bytesPerActivate::total         5977                       # Bytes accessed per row activation
system.mem_ctrls.rdPerTurnAround::samples          749                       # Reads before turning the bus around for writes
system.mem_ctrls.rdPerTurnAround::mean      19.050734                       # Reads before turning the bus around for writes
system.mem_ctrls.rdPerTurnAround::gmean     18.482467                       # Reads before turning the bus around for writes
system.mem_ctrls.rdPerTurnAround::stdev      8.578364                       # Reads before turning the bus around for writes
system.mem_ctrls.rdPerTurnAround::16-23           737     98.40%     98.40% # Reads before turning the bus around for writes
system.mem_ctrls.rdPerTurnAround::32-39             1      0.13%     98.53% # Reads before turning the bus around for writes
system.mem_ctrls.rdPerTurnAround::40-47             1      0.13%     98.66% # Reads before turning the bus around for writes
system.mem_ctrls.rdPerTurnAround::48-55             2      0.27%     98.93% # Reads before turning the bus around for writes
system.mem_ctrls.rdPerTurnAround::56-63             1      0.13%     99.07% # Reads before turning the bus around for writes
system.mem_ctrls.rdPerTurnAround::64-71             1      0.13%     99.20% # Reads before turning the bus around for writes
system.mem_ctrls.rdPerTurnAround::72-79             1      0.13%     99.33% # Reads before turning the bus around for writes
system.mem_ctrls.rdPerTurnAround::80-87             1      0.13%     99.47% # Reads before turning the bus around for writes
system.mem_ctrls.rdPerTurnAround::104-111            2      0.27%     99.73% # Reads before turning the bus around for writes
system.mem_ctrls.rdPerTurnAround::112-119            1      0.13%     99.87% # Reads before turning the bus around for writes
system.mem_ctrls.rdPerTurnAround::136-143            1      0.13%    100.00% # Reads before turning the bus around for writes
system.mem_ctrls.rdPerTurnAround::total           749                       # Reads before turning the bus around for writes
system.mem_ctrls.wrPerTurnAround::samples          749                       # Writes before turning the bus around for reads
system.mem_ctrls.wrPerTurnAround::mean      17.947931                       # Writes before turning the bus around for reads
system.mem_ctrls.wrPerTurnAround::gmean     17.944930                       # Writes before turning the bus around for reads
system.mem_ctrls.wrPerTurnAround::stdev      0.316585                       # Writes before turning the bus around for reads
system.mem_ctrls.wrPerTurnAround::16               19      2.54%      2.54% # Writes before turning the bus around for reads
system.mem_ctrls.wrPerTurnAround::17                1      0.13%      2.67% # Writes before turning the bus around for reads
system.mem_ctrls.wrPerTurnAround::18              729     97.33%    100.00% # Writes before turning the bus around for reads
system.mem_ctrls.wrPerTurnAround::total           749                       # Writes before turning the bus around for reads
system.mem_ctrls.totQLat                    355330000                       # Total ticks spent queuing
system.mem_ctrls.totMemAccLat               622817500                       # Total ticks spent from burst creation until serviced by the DRAM
system.mem_ctrls.totBusLat                   71330000                       # Total ticks spent in databus transfers
system.mem_ctrls.avgQLat                     24907.47                       # Average queueing delay per DRAM burst
system.mem_ctrls.avgBusLat                    5000.00                       # Average bus latency per DRAM burst
system.mem_ctrls.avgMemAccLat                43657.47                       # Average memory access latency per DRAM burst
system.mem_ctrls.avgRdBW                        59.80                       # Average DRAM read bandwidth in MiByte/s
system.mem_ctrls.avgWrBW                        56.35                       # Average achieved write bandwidth in MiByte/s
system.mem_ctrls.avgRdBWSys                     59.80                       # Average system read bandwidth in MiByte/s
system.mem_ctrls.avgWrBWSys                     56.34                       # Average system write bandwidth in MiByte/s
system.mem_ctrls.peakBW                      12800.00                       # Theoretical peak bandwidth in MiByte/s
system.mem_ctrls.busUtil                         0.91                       # Data bus utilization in percentage
system.mem_ctrls.busUtilRead                     0.47                       # Data bus utilization in percentage for reads
system.mem_ctrls.busUtilWrite                    0.44                       # Data bus utilization in percentage for writes
system.mem_ctrls.avgRdQLen                       1.00                       # Average read queue length when enqueuing
system.mem_ctrls.avgWrQLen                      24.59                       # Average write queue length when enqueuing
system.mem_ctrls.readRowHits                    10375                       # Number of row buffer hits during reads
system.mem_ctrls.writeRowHits                   11358                       # Number of row buffer hits during writes
system.mem_ctrls.readRowHitRate                 72.73                       # Row buffer hit rate for reads
system.mem_ctrls.writeRowHitRate                84.51                       # Row buffer hit rate for writes
system.mem_ctrls.avgGap                     551085.36                       # Average gap between requests
system.mem_ctrls.pageHitRate                    78.44                       # Row buffer hit rate, read and write combined
system.mem_ctrls_0.actEnergy                 18378360                       # Energy for activate commands per rank (pJ)
system.mem_ctrls_0.preEnergy                  9775920                       # Energy for precharge commands per rank (pJ)
system.mem_ctrls_0.readEnergy                50736840                       # Energy for read commands per rank (pJ)
system.mem_ctrls_0.writeEnergy               33684660                       # Energy for write commands per rank (pJ)
system.mem_ctrls_0.refreshEnergy         1028292720.000000                       # Energy for refresh commands per rank (pJ)
system.mem_ctrls_0.actBackEnergy            589785840                       # Energy for active background per rank (pJ)
system.mem_ctrls_0.preBackEnergy             45693120                       # Energy for precharge background per rank (pJ)
system.mem_ctrls_0.actPowerDownEnergy      3385179270                       # Energy for active power-down per rank (pJ)
system.mem_ctrls_0.prePowerDownEnergy       952140960                       # Energy for precharge power-down per rank (pJ)
system.mem_ctrls_0.selfRefreshEnergy       1078757940                       # Energy for self refresh per rank (pJ)
system.mem_ctrls_0.totalEnergy             7192544490                       # Total energy per rank (pJ)
system.mem_ctrls_0.averagePower            471.106463                       # Core power per rank (mW)
system.mem_ctrls_0.totalIdleTime          13776278375                       # Total Idle time Per DRAM Rank
system.mem_ctrls_0.memoryStateTime::IDLE     70308000                       # Time in different power states
system.mem_ctrls_0.memoryStateTime::REF     436402000                       # Time in different power states
system.mem_ctrls_0.memoryStateTime::SREF   3951523500                       # Time in different power states
system.mem_ctrls_0.memoryStateTime::PRE_PDN   2479658750                       # Time in different power states
system.mem_ctrls_0.memoryStateTime::ACT     905734750                       # Time in different power states
system.mem_ctrls_0.memoryStateTime::ACT_PDN   7423717125                       # Time in different power states
system.mem_ctrls_1.actEnergy                 24290280                       # Energy for activate commands per rank (pJ)
system.mem_ctrls_1.preEnergy                 12906795                       # Energy for precharge commands per rank (pJ)
system.mem_ctrls_1.readEnergy                51122400                       # Energy for read commands per rank (pJ)
system.mem_ctrls_1.writeEnergy               36487800                       # Energy for write commands per rank (pJ)
system.mem_ctrls_1.refreshEnergy         1215143280.000000                       # Energy for refresh commands per rank (pJ)
system.mem_ctrls_1.actBackEnergy            762930750                       # Energy for active background per rank (pJ)
system.mem_ctrls_1.preBackEnergy             61142400                       # Energy for precharge background per rank (pJ)
system.mem_ctrls_1.actPowerDownEnergy      3602984250                       # Energy for active power-down per rank (pJ)
system.mem_ctrls_1.prePowerDownEnergy      1310719200                       # Energy for precharge power-down per rank (pJ)
system.mem_ctrls_1.selfRefreshEnergy        679541160                       # Energy for self refresh per rank (pJ)
system.mem_ctrls_1.totalEnergy             7757454165                       # Total energy per rank (pJ)
system.mem_ctrls_1.averagePower            508.107638                       # Core power per rank (mW)
system.mem_ctrls_1.totalIdleTime          13434807625                       # Total Idle time Per DRAM Rank
system.mem_ctrls_1.memoryStateTime::IDLE    107148500                       # Time in different power states
system.mem_ctrls_1.memoryStateTime::REF     515904000                       # Time in different power states
system.mem_ctrls_1.memoryStateTime::SREF   2119994875                       # Time in different power states
system.mem_ctrls_1.memoryStateTime::PRE_PDN   3413462250                       # Time in different power states
system.mem_ctrls_1.memoryStateTime::ACT    1209423750                       # Time in different power states
system.mem_ctrls_1.memoryStateTime::ACT_PDN   7901410750                       # Time in different power states
system.pwrStateResidencyTicks::UNDEFINED  15267344125                       # Cumulative time (in ticks) in various power states
system.cpu0.branchPred.lookups                5254019                       # Number of BP lookups
system.cpu0.branchPred.condPredicted          5254019                       # Number of conditional branches predicted
system.cpu0.branchPred.condIncorrect           106616                       # Number of conditional branches incorrect
system.cpu0.branchPred.BTBLookups             4215362                       # Number of BTB lookups
system.cpu0.branchPred.BTBHits                      0                       # Number of BTB hits
system.cpu0.branchPred.BTBCorrect                   0                       # Number of correct BTB predictions (this stat may not work properly.
system.cpu0.branchPred.BTBHitPct             0.000000                       # BTB Hit Percentage
system.cpu0.branchPred.usedRAS                 730761                       # Number of times the RAS was used to get a target.
system.cpu0.branchPred.RASInCorrect                 1                       # Number of incorrect RAS predictions.
system.cpu0.branchPred.indirectLookups        4215362                       # Number of indirect predictor lookups.
system.cpu0.branchPred.indirectHits           2530948                       # Number of indirect target hits.
system.cpu0.branchPred.indirectMisses         1684414                       # Number of indirect misses.
system.cpu0.branchPredindirectMispredicted            2                       # Number of mispredicted indirect branches.
system.cpu_voltage_domain.voltage                   1                       # Voltage in Volts
system.cpu_clk_domain.clock                       500                       # Clock period in ticks
system.cpu0.dtb.walker.pwrStateResidencyTicks::UNDEFINED  15267344125                       # Cumulative time (in ticks) in various power states
system.cpu0.dtb.rdAccesses                    8916338                       # TLB accesses on read requests
system.cpu0.dtb.wrAccesses                    2101831                       # TLB accesses on write requests
system.cpu0.dtb.rdMisses                          230                       # TLB misses on read requests
system.cpu0.dtb.wrMisses                            2                       # TLB misses on write requests
system.cpu0.apic_clk_domain.clock                8000                       # Clock period in ticks
system.cpu0.interrupts.pwrStateResidencyTicks::UNDEFINED  15267344125                       # Cumulative time (in ticks) in various power states
system.cpu0.itb.walker.pwrStateResidencyTicks::UNDEFINED  15267344125                       # Cumulative time (in ticks) in various power states
system.cpu0.itb.rdAccesses                          0                       # TLB accesses on read requests
system.cpu0.itb.wrAccesses                    6266212                       # TLB accesses on write requests
system.cpu0.itb.rdMisses                            0                       # TLB misses on read requests
system.cpu0.itb.wrMisses                            0                       # TLB misses on write requests
system.cpu0.workload.numSyscalls                    0                       # Number of system calls
system.cpu0.pwrStateResidencyTicks::ON    15267344125                       # Cumulative time (in ticks) in various power states
system.cpu0.numCycles                        30534689                       # number of cpu cycles simulated
system.cpu0.numWorkItemsStarted                     0                       # number of work items this cpu started
system.cpu0.numWorkItemsCompleted                   0                       # number of work items this cpu completed
system.cpu0.fetch.icacheStallCycles           6320921                       # Number of cycles fetch is stalled on an Icache miss
system.cpu0.fetch.Insts                      46332543                       # Number of instructions fetch has processed
system.cpu0.fetch.Branches                    5254019                       # Number of branches that fetch encountered
system.cpu0.fetch.predictedBranches           3261709                       # Number of branches that fetch has predicted taken
system.cpu0.fetch.Cycles                     24107049                       # Number of cycles fetch has run and was not squashing or blocked
system.cpu0.fetch.SquashCycles                 213438                       # Number of cycles fetch has spent squashing
system.cpu0.fetch.CacheLines                  6266212                       # Number of cache lines fetched
system.cpu0.fetch.IcacheSquashes                51986                       # Number of outstanding Icache misses that were squashed
system.cpu0.fetch.rateDist::samples          30534689                       # Number of instructions fetched each cycle (Total)
system.cpu0.fetch.rateDist::mean             2.651899                       # Number of instructions fetched each cycle (Total)
system.cpu0.fetch.rateDist::stdev            3.365468                       # Number of instructions fetched each cycle (Total)
system.cpu0.fetch.rateDist::underflows              0      0.00%      0.00% # Number of instructions fetched each cycle (Total)
system.cpu0.fetch.rateDist::0                16783270     54.96%     54.96% # Number of instructions fetched each cycle (Total)
system.cpu0.fetch.rateDist::1                  721870      2.36%     57.33% # Number of instructions fetched each cycle (Total)
system.cpu0.fetch.rateDist::2                 1660599      5.44%     62.77% # Number of instructions fetched each cycle (Total)
system.cpu0.fetch.rateDist::3                  673014      2.20%     64.97% # Number of instructions fetched each cycle (Total)
system.cpu0.fetch.rateDist::4                  996650      3.26%     68.24% # Number of instructions fetched each cycle (Total)
system.cpu0.fetch.rateDist::5                 1556624      5.10%     73.33% # Number of instructions fetched each cycle (Total)
system.cpu0.fetch.rateDist::6                  572048      1.87%     75.21% # Number of instructions fetched each cycle (Total)
system.cpu0.fetch.rateDist::7                  854131      2.80%     78.00% # Number of instructions fetched each cycle (Total)
system.cpu0.fetch.rateDist::8                 6716483     22.00%    100.00% # Number of instructions fetched each cycle (Total)
system.cpu0.fetch.rateDist::overflows               0      0.00%    100.00% # Number of instructions fetched each cycle (Total)
system.cpu0.fetch.rateDist::min_value               0                       # Number of instructions fetched each cycle (Total)
system.cpu0.fetch.rateDist::max_value               8                       # Number of instructions fetched each cycle (Total)
system.cpu0.fetch.rateDist::total            30534689                       # Number of instructions fetched each cycle (Total)
system.cpu0.fetch.branchRate                 0.172067                       # Number of branch fetches per cycle
system.cpu0.fetch.rate                       1.517374                       # Number of inst fetches per cycle
system.cpu0.decode.IdleCycles                 4103769                       # Number of cycles decode is idle
system.cpu0.decode.BlockedCycles             15807865                       # Number of cycles decode is blocked
system.cpu0.decode.RunCycles                  6150197                       # Number of cycles decode is running
system.cpu0.decode.UnblockCycles              4366139                       # Number of cycles decode is unblocking
system.cpu0.decode.SquashCycles                106719                       # Number of cycles decode is squashing
system.cpu0.decode.DecodedInsts              77497594                       # Number of instructions handled by decode
system.cpu0.rename.SquashCycles                106719                       # Number of cycles rename is squashing
system.cpu0.rename.IdleCycles                 5818818                       # Number of cycles rename is idle
system.cpu0.rename.BlockCycles                5661986                       # Number of cycles rename is blocking
system.cpu0.rename.serializeStallCycles             4                       # count of cycles rename stalled for serializing inst
system.cpu0.rename.RunCycles                  8742226                       # Number of cycles rename is running
system.cpu0.rename.UnblockCycles             10204936                       # Number of cycles rename is unblocking
system.cpu0.rename.RenamedInsts              76995609                       # Number of instructions processed by rename
system.cpu0.rename.ROBFullEvents               210672                       # Number of times rename has blocked due to ROB full
system.cpu0.rename.IQFullEvents               9123117                       # Number of times rename has blocked due to IQ full
system.cpu0.rename.LQFullEvents                  1236                       # Number of times rename has blocked due to LQ full
system.cpu0.rename.RenamedOperands           82805345                       # Number of destination operands rename has renamed
system.cpu0.rename.RenameLookups            182927022                       # Number of register rename lookups that rename has made
system.cpu0.rename.int_rename_lookups        60253208                       # Number of integer rename lookups
system.cpu0.rename.fp_rename_lookups         74984343                       # Number of floating rename lookups
system.cpu0.rename.CommittedMaps             70578962                       # Number of HB maps that are committed
system.cpu0.rename.UndoneMaps                12226389                       # Number of HB maps that are undone due to squashing
system.cpu0.rename.serializingInsts                 2                       # count of serializing insts renamed
system.cpu0.rename.tempSerializingInsts             2                       # count of temporary serializing insts renamed
system.cpu0.rename.skidInsts                 23430337                       # count of insts added to the skid buffer
system.cpu0.memDep0.insertedLoads             9497595                       # Number of loads inserted to the mem dependence unit.
system.cpu0.memDep0.insertedStores            2104037                       # Number of stores inserted to the mem dependence unit.
system.cpu0.memDep0.conflictingLoads           426340                       # Number of conflicting loads.
system.cpu0.memDep0.conflictingStores          184993                       # Number of conflicting stores.
system.cpu0.iq.iqInstsAdded                  76340987                       # Number of instructions added to the IQ (excludes non-spec)
system.cpu0.iq.iqNonSpecInstsAdded                  1                       # Number of non-speculative instructions added to the IQ
system.cpu0.iq.iqInstsIssued                 70784418                       # Number of instructions issued
system.cpu0.iq.iqSquashedInstsExamined       10371695                       # Number of squashed instructions iterated over during squash; mainly for profiling
system.cpu0.iq.iqSquashedOperandsExamined     14954927                       # Number of squashed operands that are examined and possibly removed from graph
system.cpu0.iq.iqSquashedNonSpecRemoved             1                       # Number of squashed non-spec instructions that were removed
system.cpu0.iq.issued_per_cycle::samples     30534689                       # Number of insts issued each cycle
system.cpu0.iq.issued_per_cycle::mean        2.318164                       # Number of insts issued each cycle
system.cpu0.iq.issued_per_cycle::stdev       1.959225                       # Number of insts issued each cycle
system.cpu0.iq.issued_per_cycle::underflows            0      0.00%      0.00% # Number of insts issued each cycle
system.cpu0.iq.issued_per_cycle::0            6335195     20.75%     20.75% # Number of insts issued each cycle
system.cpu0.iq.issued_per_cycle::1            6119820     20.04%     40.79% # Number of insts issued each cycle
system.cpu0.iq.issued_per_cycle::2            5661415     18.54%     59.33% # Number of insts issued each cycle
system.cpu0.iq.issued_per_cycle::3            4847303     15.87%     75.21% # Number of insts issued each cycle
system.cpu0.iq.issued_per_cycle::4            2986950      9.78%     84.99% # Number of insts issued each cycle
system.cpu0.iq.issued_per_cycle::5            1970137      6.45%     91.44% # Number of insts issued each cycle
system.cpu0.iq.issued_per_cycle::6            1609734      5.27%     96.71% # Number of insts issued each cycle
system.cpu0.iq.issued_per_cycle::7             690110      2.26%     98.97% # Number of insts issued each cycle
system.cpu0.iq.issued_per_cycle::8             314025      1.03%    100.00% # Number of insts issued each cycle
system.cpu0.iq.issued_per_cycle::overflows            0      0.00%    100.00% # Number of insts issued each cycle
system.cpu0.iq.issued_per_cycle::min_value            0                       # Number of insts issued each cycle
system.cpu0.iq.issued_per_cycle::max_value            8                       # Number of insts issued each cycle
system.cpu0.iq.issued_per_cycle::total       30534689                       # Number of insts issued each cycle
system.cpu0.iq.fu_full::No_OpClass                  0      0.00%      0.00% # attempts to use FU when none available
system.cpu0.iq.fu_full::IntAlu                     11      0.01%      0.01% # attempts to use FU when none available
system.cpu0.iq.fu_full::IntMult                     0      0.00%      0.01% # attempts to use FU when none available
system.cpu0.iq.fu_full::IntDiv                      0      0.00%      0.01% # attempts to use FU when none available
system.cpu0.iq.fu_full::FloatAdd               103552     99.81%     99.83% # attempts to use FU when none available
system.cpu0.iq.fu_full::FloatCmp                    0      0.00%     99.83% # attempts to use FU when none available
system.cpu0.iq.fu_full::FloatCvt                    0      0.00%     99.83% # attempts to use FU when none available
system.cpu0.iq.fu_full::FloatMult                   0      0.00%     99.83% # attempts to use FU when none available
system.cpu0.iq.fu_full::FloatMultAcc                0      0.00%     99.83% # attempts to use FU when none available
system.cpu0.iq.fu_full::FloatDiv                    0      0.00%     99.83% # attempts to use FU when none available
system.cpu0.iq.fu_full::FloatMisc                   0      0.00%     99.83% # attempts to use FU when none available
system.cpu0.iq.fu_full::FloatSqrt                   0      0.00%     99.83% # attempts to use FU when none available
system.cpu0.iq.fu_full::SimdAdd                     0      0.00%     99.83% # attempts to use FU when none available
system.cpu0.iq.fu_full::SimdAddAcc                  0      0.00%     99.83% # attempts to use FU when none available
system.cpu0.iq.fu_full::SimdAlu                     0      0.00%     99.83% # attempts to use FU when none available
system.cpu0.iq.fu_full::SimdCmp                     0      0.00%     99.83% # attempts to use FU when none available
system.cpu0.iq.fu_full::SimdCvt                     0      0.00%     99.83% # attempts to use FU when none available
system.cpu0.iq.fu_full::SimdMisc                    0      0.00%     99.83% # attempts to use FU when none available
system.cpu0.iq.fu_full::SimdMult                    0      0.00%     99.83% # attempts to use FU when none available
system.cpu0.iq.fu_full::SimdMultAcc                 0      0.00%     99.83% # attempts to use FU when none available
system.cpu0.iq.fu_full::SimdShift                   0      0.00%     99.83% # attempts to use FU when none available
system.cpu0.iq.fu_full::SimdShiftAcc                0      0.00%     99.83% # attempts to use FU when none available
system.cpu0.iq.fu_full::SimdSqrt                    0      0.00%     99.83% # attempts to use FU when none available
system.cpu0.iq.fu_full::SimdFloatAdd                0      0.00%     99.83% # attempts to use FU when none available
system.cpu0.iq.fu_full::SimdFloatAlu                0      0.00%     99.83% # attempts to use FU when none available
system.cpu0.iq.fu_full::SimdFloatCmp                0      0.00%     99.83% # attempts to use FU when none available
system.cpu0.iq.fu_full::SimdFloatCvt                0      0.00%     99.83% # attempts to use FU when none available
system.cpu0.iq.fu_full::SimdFloatDiv                0      0.00%     99.83% # attempts to use FU when none available
system.cpu0.iq.fu_full::SimdFloatMisc               0      0.00%     99.83% # attempts to use FU when none available
system.cpu0.iq.fu_full::SimdFloatMult               0      0.00%     99.83% # attempts to use FU when none available
system.cpu0.iq.fu_full::SimdFloatMultAcc            0      0.00%     99.83% # attempts to use FU when none available
system.cpu0.iq.fu_full::SimdFloatSqrt               0      0.00%     99.83% # attempts to use FU when none available
system.cpu0.iq.fu_full::MemRead                   181      0.17%    100.00% # attempts to use FU when none available
system.cpu0.iq.fu_full::MemWrite                    0      0.00%    100.00% # attempts to use FU when none available
system.cpu0.iq.fu_full::FloatMemRead                0      0.00%    100.00% # attempts to use FU when none available
system.cpu0.iq.fu_full::FloatMemWrite               0      0.00%    100.00% # attempts to use FU when none available
system.cpu0.iq.fu_full::IprAccess                   0      0.00%    100.00% # attempts to use FU when none available
system.cpu0.iq.fu_full::InstPrefetch                0      0.00%    100.00% # attempts to use FU when none available
system.cpu0.iq.FU_type_0::No_OpClass             6272      0.01%      0.01% # Type of FU issued
system.cpu0.iq.FU_type_0::IntAlu             36821673     52.02%     52.03% # Type of FU issued
system.cpu0.iq.FU_type_0::IntMult                   0      0.00%     52.03% # Type of FU issued
system.cpu0.iq.FU_type_0::IntDiv                    0      0.00%     52.03% # Type of FU issued
system.cpu0.iq.FU_type_0::FloatAdd           22962927     32.44%     84.47% # Type of FU issued
system.cpu0.iq.FU_type_0::FloatCmp                  0      0.00%     84.47% # Type of FU issued
system.cpu0.iq.FU_type_0::FloatCvt                  0      0.00%     84.47% # Type of FU issued
system.cpu0.iq.FU_type_0::FloatMult                 0      0.00%     84.47% # Type of FU issued
system.cpu0.iq.FU_type_0::FloatMultAcc              0      0.00%     84.47% # Type of FU issued
system.cpu0.iq.FU_type_0::FloatDiv                  0      0.00%     84.47% # Type of FU issued
system.cpu0.iq.FU_type_0::FloatMisc                 0      0.00%     84.47% # Type of FU issued
system.cpu0.iq.FU_type_0::FloatSqrt                 0      0.00%     84.47% # Type of FU issued
system.cpu0.iq.FU_type_0::SimdAdd                   0      0.00%     84.47% # Type of FU issued
system.cpu0.iq.FU_type_0::SimdAddAcc                0      0.00%     84.47% # Type of FU issued
system.cpu0.iq.FU_type_0::SimdAlu                   0      0.00%     84.47% # Type of FU issued
system.cpu0.iq.FU_type_0::SimdCmp                   0      0.00%     84.47% # Type of FU issued
system.cpu0.iq.FU_type_0::SimdCvt                   0      0.00%     84.47% # Type of FU issued
system.cpu0.iq.FU_type_0::SimdMisc                  0      0.00%     84.47% # Type of FU issued
system.cpu0.iq.FU_type_0::SimdMult                  0      0.00%     84.47% # Type of FU issued
system.cpu0.iq.FU_type_0::SimdMultAcc               0      0.00%     84.47% # Type of FU issued
system.cpu0.iq.FU_type_0::SimdShift                 0      0.00%     84.47% # Type of FU issued
system.cpu0.iq.FU_type_0::SimdShiftAcc              0      0.00%     84.47% # Type of FU issued
system.cpu0.iq.FU_type_0::SimdSqrt                  0      0.00%     84.47% # Type of FU issued
system.cpu0.iq.FU_type_0::SimdFloatAdd              0      0.00%     84.47% # Type of FU issued
system.cpu0.iq.FU_type_0::SimdFloatAlu              0      0.00%     84.47% # Type of FU issued
system.cpu0.iq.FU_type_0::SimdFloatCmp              0      0.00%     84.47% # Type of FU issued
system.cpu0.iq.FU_type_0::SimdFloatCvt              0      0.00%     84.47% # Type of FU issued
system.cpu0.iq.FU_type_0::SimdFloatDiv              0      0.00%     84.47% # Type of FU issued
system.cpu0.iq.FU_type_0::SimdFloatMisc             0      0.00%     84.47% # Type of FU issued
system.cpu0.iq.FU_type_0::SimdFloatMult             0      0.00%     84.47% # Type of FU issued
system.cpu0.iq.FU_type_0::SimdFloatMultAcc            0      0.00%     84.47% # Type of FU issued
system.cpu0.iq.FU_type_0::SimdFloatSqrt             0      0.00%     84.47% # Type of FU issued
system.cpu0.iq.FU_type_0::MemRead             1961822      2.77%     87.24% # Type of FU issued
system.cpu0.iq.FU_type_0::MemWrite            1474392      2.08%     89.32% # Type of FU issued
system.cpu0.iq.FU_type_0::FloatMemRead        6929330      9.79%     99.11% # Type of FU issued
system.cpu0.iq.FU_type_0::FloatMemWrite        628002      0.89%    100.00% # Type of FU issued
system.cpu0.iq.FU_type_0::IprAccess                 0      0.00%    100.00% # Type of FU issued
system.cpu0.iq.FU_type_0::InstPrefetch              0      0.00%    100.00% # Type of FU issued
system.cpu0.iq.FU_type_0::total              70784418                       # Type of FU issued
system.cpu0.iq.rate                          2.318164                       # Inst issue rate
system.cpu0.iq.fu_busy_cnt                     103744                       # FU busy when requested
system.cpu0.iq.fu_busy_rate                  0.001466                       # FU busy rate (busy events/executed inst)
system.cpu0.iq.int_inst_queue_reads          97529771                       # Number of integer instruction queue reads
system.cpu0.iq.int_inst_queue_writes         37456908                       # Number of integer instruction queue writes
system.cpu0.iq.int_inst_queue_wakeup_accesses     33435272                       # Number of integer instruction queue wakeup accesses
system.cpu0.iq.fp_inst_queue_reads           74677496                       # Number of floating instruction queue reads
system.cpu0.iq.fp_inst_queue_writes          49255878                       # Number of floating instruction queue writes
system.cpu0.iq.fp_inst_queue_wakeup_accesses     37142856                       # Number of floating instruction queue wakeup accesses
system.cpu0.iq.vec_inst_queue_reads                 0                       # Number of vector instruction queue reads
system.cpu0.iq.vec_inst_queue_writes                0                       # Number of vector instruction queue writes
system.cpu0.iq.vec_inst_queue_wakeup_accesses            0                       # Number of vector instruction queue wakeup accesses
system.cpu0.iq.int_alu_accesses              33491361                       # Number of integer alu accesses
system.cpu0.iq.fp_alu_accesses               37390529                       # Number of floating point alu accesses
system.cpu0.iq.vec_alu_accesses                     0                       # Number of vector alu accesses
system.cpu0.iew.lsq.thread0.forwLoads          420097                       # Number of loads that had data forwarded from stores
system.cpu0.iew.lsq.thread0.invAddrLoads            0                       # Number of loads ignored due to an invalid address
system.cpu0.iew.lsq.thread0.squashedLoads      1375863                       # Number of loads squashed
system.cpu0.iew.lsq.thread0.ignoredResponses            5                       # Number of memory responses ignored because the instruction is squashed
system.cpu0.iew.lsq.thread0.memOrderViolation          103                       # Number of memory ordering violations
system.cpu0.iew.lsq.thread0.squashedStores         3655                       # Number of stores squashed
system.cpu0.iew.lsq.thread0.invAddrSwpfs            0                       # Number of software prefetches ignored due to an invalid address
system.cpu0.iew.lsq.thread0.blockedLoads            0                       # Number of blocked loads due to partial load-store forwarding
system.cpu0.iew.lsq.thread0.rescheduledLoads            0                       # Number of loads that were rescheduled
system.cpu0.iew.lsq.thread0.cacheBlocked            0                       # Number of times an access to memory failed due to the cache being blocked
system.cpu0.iew.iewIdleCycles                       0                       # Number of cycles IEW is idle
system.cpu0.iew.iewSquashCycles                106719                       # Number of cycles IEW is squashing
system.cpu0.iew.iewBlockCycles                3296293                       # Number of cycles IEW is blocking
system.cpu0.iew.iewUnblockCycles               115922                       # Number of cycles IEW is unblocking
system.cpu0.iew.iewDispatchedInsts           76340988                       # Number of instructions dispatched to IQ
system.cpu0.iew.iewDispSquashedInsts                0                       # Number of squashed instructions skipped by dispatch
system.cpu0.iew.iewDispLoadInsts              9497595                       # Number of dispatched load instructions
system.cpu0.iew.iewDispStoreInsts             2104037                       # Number of dispatched store instructions
system.cpu0.iew.iewDispNonSpecInsts                 1                       # Number of dispatched non-speculative instructions
system.cpu0.iew.iewIQFullEvents                102471                       # Number of times the IQ has become full, causing a stall
system.cpu0.iew.iewLSQFullEvents                    0                       # Number of times the LSQ has become full, causing a stall
system.cpu0.iew.memOrderViolationEvents           103                       # Number of memory order violations
system.cpu0.iew.predictedTakenIncorrect         58774                       # Number of branches that were predicted taken incorrectly
system.cpu0.iew.predictedNotTakenIncorrect        47854                       # Number of branches that were predicted not taken incorrectly
system.cpu0.iew.branchMispredicts              106628                       # Number of branch mispredicts detected at execute
system.cpu0.iew.iewExecutedInsts             70586698                       # Number of executed instructions
system.cpu0.iew.iewExecLoadInsts              8890052                       # Number of load instructions executed
system.cpu0.iew.iewExecSquashedInsts           197718                       # Number of squashed instructions skipped in execute
system.cpu0.iew.exec_swp                            0                       # number of swp insts executed
system.cpu0.iew.exec_nop                            0                       # number of nop insts executed
system.cpu0.iew.exec_refs                    10991883                       # number of memory reference insts executed
system.cpu0.iew.exec_branches                 4720676                       # Number of branches executed
system.cpu0.iew.exec_stores                   2101831                       # Number of stores executed
system.cpu0.iew.exec_rate                    2.311689                       # Inst execution rate
system.cpu0.iew.wb_sent                      70582296                       # cumulative count of insts sent to commit
system.cpu0.iew.wb_count                     70578128                       # cumulative count of insts written-back
system.cpu0.iew.wb_producers                 52553789                       # num instructions producing a value
system.cpu0.iew.wb_consumers                 92520706                       # num instructions consuming a value
system.cpu0.iew.wb_rate                      2.311408                       # insts written-back per cycle
system.cpu0.iew.wb_fanout                    0.568022                       # average fanout of values written-back
system.cpu0.commit.commitSquashedInsts       10371695                       # The number of squashed insts skipped by commit
system.cpu0.commit.branchMispredicts           106616                       # The number of times a branch was mispredicted
system.cpu0.commit.committed_per_cycle::samples     29208201                       # Number of insts commited each cycle
system.cpu0.commit.committed_per_cycle::mean     2.258589                       # Number of insts commited each cycle
system.cpu0.commit.committed_per_cycle::stdev     2.863098                       # Number of insts commited each cycle
system.cpu0.commit.committed_per_cycle::underflows            0      0.00%      0.00% # Number of insts commited each cycle
system.cpu0.commit.committed_per_cycle::0     10939067     37.45%     37.45% # Number of insts commited each cycle
system.cpu0.commit.committed_per_cycle::1      7527589     25.77%     63.22% # Number of insts commited each cycle
system.cpu0.commit.committed_per_cycle::2      1057474      3.62%     66.84% # Number of insts commited each cycle
system.cpu0.commit.committed_per_cycle::3      2911064      9.97%     76.81% # Number of insts commited each cycle
system.cpu0.commit.committed_per_cycle::4      1142278      3.91%     80.72% # Number of insts commited each cycle
system.cpu0.commit.committed_per_cycle::5       217312      0.74%     81.47% # Number of insts commited each cycle
system.cpu0.commit.committed_per_cycle::6       421603      1.44%     82.91% # Number of insts commited each cycle
system.cpu0.commit.committed_per_cycle::7       526217      1.80%     84.71% # Number of insts commited each cycle
system.cpu0.commit.committed_per_cycle::8      4465597     15.29%    100.00% # Number of insts commited each cycle
system.cpu0.commit.committed_per_cycle::overflows            0      0.00%    100.00% # Number of insts commited each cycle
system.cpu0.commit.committed_per_cycle::min_value            0                       # Number of insts commited each cycle
system.cpu0.commit.committed_per_cycle::max_value            8                       # Number of insts commited each cycle
system.cpu0.commit.committed_per_cycle::total     29208201                       # Number of insts commited each cycle
system.cpu0.commit.committedInsts            37158785                       # Number of instructions committed
system.cpu0.commit.committedOps              65969314                       # Number of ops (including micro ops) committed
system.cpu0.commit.swp_count                        0                       # Number of s/w prefetches committed
system.cpu0.commit.refs                      10222118                       # Number of memory references committed
system.cpu0.commit.loads                      8121731                       # Number of loads committed
system.cpu0.commit.membars                          0                       # Number of memory barriers committed
system.cpu0.commit.branches                   4616516                       # Number of branches committed
system.cpu0.commit.vec_insts                        0                       # Number of committed Vector instructions.
system.cpu0.commit.fp_insts                  34111720                       # Number of committed floating point instructions.
system.cpu0.commit.int_insts                 40952554                       # Number of committed integer instructions.
system.cpu0.commit.function_calls              627989                       # Number of function calls committed.
system.cpu0.commit.op_class_0::No_OpClass         5997      0.01%      0.01% # Class of committed instruction
system.cpu0.commit.op_class_0::IntAlu        34289395     51.98%     51.99% # Class of committed instruction
system.cpu0.commit.op_class_0::IntMult              0      0.00%     51.99% # Class of committed instruction
system.cpu0.commit.op_class_0::IntDiv               0      0.00%     51.99% # Class of committed instruction
system.cpu0.commit.op_class_0::FloatAdd      21451804     32.52%     84.50% # Class of committed instruction
system.cpu0.commit.op_class_0::FloatCmp             0      0.00%     84.50% # Class of committed instruction
system.cpu0.commit.op_class_0::FloatCvt             0      0.00%     84.50% # Class of committed instruction
system.cpu0.commit.op_class_0::FloatMult            0      0.00%     84.50% # Class of committed instruction
system.cpu0.commit.op_class_0::FloatMultAcc            0      0.00%     84.50% # Class of committed instruction
system.cpu0.commit.op_class_0::FloatDiv             0      0.00%     84.50% # Class of committed instruction
system.cpu0.commit.op_class_0::FloatMisc            0      0.00%     84.50% # Class of committed instruction
system.cpu0.commit.op_class_0::FloatSqrt            0      0.00%     84.50% # Class of committed instruction
system.cpu0.commit.op_class_0::SimdAdd              0      0.00%     84.50% # Class of committed instruction
system.cpu0.commit.op_class_0::SimdAddAcc            0      0.00%     84.50% # Class of committed instruction
system.cpu0.commit.op_class_0::SimdAlu              0      0.00%     84.50% # Class of committed instruction
system.cpu0.commit.op_class_0::SimdCmp              0      0.00%     84.50% # Class of committed instruction
system.cpu0.commit.op_class_0::SimdCvt              0      0.00%     84.50% # Class of committed instruction
system.cpu0.commit.op_class_0::SimdMisc             0      0.00%     84.50% # Class of committed instruction
system.cpu0.commit.op_class_0::SimdMult             0      0.00%     84.50% # Class of committed instruction
system.cpu0.commit.op_class_0::SimdMultAcc            0      0.00%     84.50% # Class of committed instruction
system.cpu0.commit.op_class_0::SimdShift            0      0.00%     84.50% # Class of committed instruction
system.cpu0.commit.op_class_0::SimdShiftAcc            0      0.00%     84.50% # Class of committed instruction
system.cpu0.commit.op_class_0::SimdSqrt             0      0.00%     84.50% # Class of committed instruction
system.cpu0.commit.op_class_0::SimdFloatAdd            0      0.00%     84.50% # Class of committed instruction
system.cpu0.commit.op_class_0::SimdFloatAlu            0      0.00%     84.50% # Class of committed instruction
system.cpu0.commit.op_class_0::SimdFloatCmp            0      0.00%     84.50% # Class of committed instruction
system.cpu0.commit.op_class_0::SimdFloatCvt            0      0.00%     84.50% # Class of committed instruction
system.cpu0.commit.op_class_0::SimdFloatDiv            0      0.00%     84.50% # Class of committed instruction
system.cpu0.commit.op_class_0::SimdFloatMisc            0      0.00%     84.50% # Class of committed instruction
system.cpu0.commit.op_class_0::SimdFloatMult            0      0.00%     84.50% # Class of committed instruction
system.cpu0.commit.op_class_0::SimdFloatMultAcc            0      0.00%     84.50% # Class of committed instruction
system.cpu0.commit.op_class_0::SimdFloatSqrt            0      0.00%     84.50% # Class of committed instruction
system.cpu0.commit.op_class_0::MemRead        1951386      2.96%     87.46% # Class of committed instruction
system.cpu0.commit.op_class_0::MemWrite       1472396      2.23%     89.69% # Class of committed instruction
system.cpu0.commit.op_class_0::FloatMemRead      6170345      9.35%     99.05% # Class of committed instruction
system.cpu0.commit.op_class_0::FloatMemWrite       627991      0.95%    100.00% # Class of committed instruction
system.cpu0.commit.op_class_0::IprAccess            0      0.00%    100.00% # Class of committed instruction
system.cpu0.commit.op_class_0::InstPrefetch            0      0.00%    100.00% # Class of committed instruction
system.cpu0.commit.op_class_0::total         65969314                       # Class of committed instruction
system.cpu0.commit.bw_lim_events              4465597                       # number cycles where commit BW limit reached
system.cpu0.rob.rob_reads                   101083613                       # The number of ROB reads
system.cpu0.rob.rob_writes                  154008504                       # The number of ROB writes
system.cpu0.committedInsts                   37158785                       # Number of Instructions Simulated
system.cpu0.committedOps                     65969314                       # Number of Ops (including micro ops) Simulated
system.cpu0.cpi                              0.821735                       # CPI: Cycles Per Instruction
system.cpu0.cpi_total                        0.821735                       # CPI: Total CPI of All Threads
system.cpu0.ipc                              1.216937                       # IPC: Instructions Per Cycle
system.cpu0.ipc_total                        1.216937                       # IPC: Total IPC of All Threads
system.cpu0.int_regfile_reads                56206778                       # number of integer regfile reads
system.cpu0.int_regfile_writes               28590002                       # number of integer regfile writes
system.cpu0.fp_regfile_reads                 64750766                       # number of floating regfile reads
system.cpu0.fp_regfile_writes                33278352                       # number of floating regfile writes
system.cpu0.cc_regfile_reads                 20639041                       # number of cc regfile reads
system.cpu0.cc_regfile_writes                13422106                       # number of cc regfile writes
system.cpu0.misc_regfile_reads               24137896                       # number of misc regfile reads
system.cpu0.dcache.tags.pwrStateResidencyTicks::UNDEFINED  15267344125                       # Cumulative time (in ticks) in various power states
system.cpu0.dcache.tags.replacements            14283                       # number of replacements
system.cpu0.dcache.tags.tagsinuse                1024                       # Cycle average of tags in use
system.cpu0.dcache.tags.total_refs            1079756                       # Total number of references to valid blocks.
system.cpu0.dcache.tags.sampled_refs            14283                       # Sample count of references to valid blocks.
system.cpu0.dcache.tags.avg_refs            75.597283                       # Average number of references to valid blocks.
system.cpu0.dcache.tags.warmup_cycle                0                       # Cycle when the warmup percentage was hit.
system.cpu0.dcache.tags.occ_blocks::cpu0.data         1024                       # Average occupied blocks per requestor
system.cpu0.dcache.tags.occ_percent::cpu0.data            1                       # Average percentage of cache occupancy
system.cpu0.dcache.tags.occ_percent::total            1                       # Average percentage of cache occupancy
system.cpu0.dcache.tags.occ_task_id_blocks::1024         1024                       # Occupied blocks per task id
system.cpu0.dcache.tags.age_task_id_blocks_1024::0            9                       # Occupied blocks per task id
system.cpu0.dcache.tags.age_task_id_blocks_1024::1           86                       # Occupied blocks per task id
system.cpu0.dcache.tags.age_task_id_blocks_1024::2          700                       # Occupied blocks per task id
system.cpu0.dcache.tags.age_task_id_blocks_1024::3           10                       # Occupied blocks per task id
system.cpu0.dcache.tags.age_task_id_blocks_1024::4          219                       # Occupied blocks per task id
system.cpu0.dcache.tags.occ_task_id_percent::1024            1                       # Percentage of cache occupancy per task id
system.cpu0.dcache.tags.tag_accesses         42400787                       # Number of tag accesses
system.cpu0.dcache.tags.data_accesses        42400787                       # Number of data accesses
system.cpu0.dcache.pwrStateResidencyTicks::UNDEFINED  15267344125                       # Cumulative time (in ticks) in various power states
system.cpu0.dcache.ReadReq_hits::cpu0.data      8481877                       # number of ReadReq hits
system.cpu0.dcache.ReadReq_hits::total        8481877                       # number of ReadReq hits
system.cpu0.dcache.WriteReq_hits::cpu0.data      2100385                       # number of WriteReq hits
system.cpu0.dcache.WriteReq_hits::total       2100385                       # number of WriteReq hits
system.cpu0.dcache.demand_hits::cpu0.data     10582262                       # number of demand (read+write) hits
system.cpu0.dcache.demand_hits::total        10582262                       # number of demand (read+write) hits
system.cpu0.dcache.overall_hits::cpu0.data     10582262                       # number of overall hits
system.cpu0.dcache.overall_hits::total       10582262                       # number of overall hits
system.cpu0.dcache.ReadReq_misses::cpu0.data        14364                       # number of ReadReq misses
system.cpu0.dcache.ReadReq_misses::total        14364                       # number of ReadReq misses
system.cpu0.dcache.demand_misses::cpu0.data        14364                       # number of demand (read+write) misses
system.cpu0.dcache.demand_misses::total         14364                       # number of demand (read+write) misses
system.cpu0.dcache.overall_misses::cpu0.data        14364                       # number of overall misses
system.cpu0.dcache.overall_misses::total        14364                       # number of overall misses
system.cpu0.dcache.ReadReq_miss_latency::cpu0.data   1393576500                       # number of ReadReq miss cycles
system.cpu0.dcache.ReadReq_miss_latency::total   1393576500                       # number of ReadReq miss cycles
system.cpu0.dcache.demand_miss_latency::cpu0.data   1393576500                       # number of demand (read+write) miss cycles
system.cpu0.dcache.demand_miss_latency::total   1393576500                       # number of demand (read+write) miss cycles
system.cpu0.dcache.overall_miss_latency::cpu0.data   1393576500                       # number of overall miss cycles
system.cpu0.dcache.overall_miss_latency::total   1393576500                       # number of overall miss cycles
system.cpu0.dcache.ReadReq_accesses::cpu0.data      8496241                       # number of ReadReq accesses(hits+misses)
system.cpu0.dcache.ReadReq_accesses::total      8496241                       # number of ReadReq accesses(hits+misses)
system.cpu0.dcache.WriteReq_accesses::cpu0.data      2100385                       # number of WriteReq accesses(hits+misses)
system.cpu0.dcache.WriteReq_accesses::total      2100385                       # number of WriteReq accesses(hits+misses)
system.cpu0.dcache.demand_accesses::cpu0.data     10596626                       # number of demand (read+write) accesses
system.cpu0.dcache.demand_accesses::total     10596626                       # number of demand (read+write) accesses
system.cpu0.dcache.overall_accesses::cpu0.data     10596626                       # number of overall (read+write) accesses
system.cpu0.dcache.overall_accesses::total     10596626                       # number of overall (read+write) accesses
system.cpu0.dcache.ReadReq_miss_rate::cpu0.data     0.001691                       # miss rate for ReadReq accesses
system.cpu0.dcache.ReadReq_miss_rate::total     0.001691                       # miss rate for ReadReq accesses
system.cpu0.dcache.demand_miss_rate::cpu0.data     0.001356                       # miss rate for demand accesses
system.cpu0.dcache.demand_miss_rate::total     0.001356                       # miss rate for demand accesses
system.cpu0.dcache.overall_miss_rate::cpu0.data     0.001356                       # miss rate for overall accesses
system.cpu0.dcache.overall_miss_rate::total     0.001356                       # miss rate for overall accesses
system.cpu0.dcache.ReadReq_avg_miss_latency::cpu0.data 97018.692565                       # average ReadReq miss latency
system.cpu0.dcache.ReadReq_avg_miss_latency::total 97018.692565                       # average ReadReq miss latency
system.cpu0.dcache.demand_avg_miss_latency::cpu0.data 97018.692565                       # average overall miss latency
system.cpu0.dcache.demand_avg_miss_latency::total 97018.692565                       # average overall miss latency
system.cpu0.dcache.overall_avg_miss_latency::cpu0.data 97018.692565                       # average overall miss latency
system.cpu0.dcache.overall_avg_miss_latency::total 97018.692565                       # average overall miss latency
system.cpu0.dcache.blocked_cycles::no_mshrs            0                       # number of cycles access was blocked
system.cpu0.dcache.blocked_cycles::no_targets            0                       # number of cycles access was blocked
system.cpu0.dcache.blocked::no_mshrs                0                       # number of cycles access was blocked
system.cpu0.dcache.blocked::no_targets              0                       # number of cycles access was blocked
system.cpu0.dcache.avg_blocked_cycles::no_mshrs          nan                       # average number of cycles each access was blocked
system.cpu0.dcache.avg_blocked_cycles::no_targets          nan                       # average number of cycles each access was blocked
system.cpu0.dcache.writebacks::writebacks        13438                       # number of writebacks
system.cpu0.dcache.writebacks::total            13438                       # number of writebacks
system.cpu0.dcache.ReadReq_mshr_hits::cpu0.data           81                       # number of ReadReq MSHR hits
system.cpu0.dcache.ReadReq_mshr_hits::total           81                       # number of ReadReq MSHR hits
system.cpu0.dcache.demand_mshr_hits::cpu0.data           81                       # number of demand (read+write) MSHR hits
system.cpu0.dcache.demand_mshr_hits::total           81                       # number of demand (read+write) MSHR hits
system.cpu0.dcache.overall_mshr_hits::cpu0.data           81                       # number of overall MSHR hits
[...]
system.cpu1.itb_walker_cache.avg_blocked_cycles::no_mshrs          nan                       # average number of cycles each access was blocked
system.cpu1.itb_walker_cache.avg_blocked_cycles::no_targets          nan                       # average number of cycles each access was blocked
system.l2.tags.pwrStateResidencyTicks::UNDEFINED  15267344125                       # Cumulative time (in ticks) in various power states
system.l2.tags.replacements                     14266                       # number of replacements
system.l2.tags.tagsinuse                        16384                       # Cycle average of tags in use
system.l2.tags.total_refs                       14323                       # Total number of references to valid blocks.
system.l2.tags.sampled_refs                     14266                       # Sample count of references to valid blocks.
system.l2.tags.avg_refs                      1.003996                       # Average number of references to valid blocks.
system.l2.tags.warmup_cycle                         0                       # Cycle when the warmup percentage was hit.
system.l2.tags.occ_blocks::cpu0.data            16384                       # Average occupied blocks per requestor
system.l2.tags.occ_percent::cpu0.data               1                       # Average percentage of cache occupancy
system.l2.tags.occ_percent::total                   1                       # Average percentage of cache occupancy
system.l2.tags.occ_task_id_blocks::1024         16384                       # Occupied blocks per task id
system.l2.tags.age_task_id_blocks_1024::0            9                       # Occupied blocks per task id
system.l2.tags.age_task_id_blocks_1024::1           86                       # Occupied blocks per task id
system.l2.tags.age_task_id_blocks_1024::2          833                       # Occupied blocks per task id
system.l2.tags.age_task_id_blocks_1024::3         8403                       # Occupied blocks per task id
system.l2.tags.age_task_id_blocks_1024::4         7053                       # Occupied blocks per task id
system.l2.tags.occ_task_id_percent::1024            1                       # Percentage of cache occupancy per task id
system.l2.tags.tag_accesses                    242794                       # Number of tag accesses
system.l2.tags.data_accesses                   242794                       # Number of data accesses
system.l2.pwrStateResidencyTicks::UNDEFINED  15267344125                       # Cumulative time (in ticks) in various power states
system.l2.WritebackDirty_hits::writebacks        13438                       # number of WritebackDirty hits
system.l2.WritebackDirty_hits::total            13438                       # number of WritebackDirty hits
system.l2.ReadSharedReq_hits::cpu0.data            17                       # number of ReadSharedReq hits
system.l2.ReadSharedReq_hits::total                17                       # number of ReadSharedReq hits
system.l2.demand_hits::cpu0.data                   17                       # number of demand (read+write) hits
system.l2.demand_hits::total                       17                       # number of demand (read+write) hits
system.l2.overall_hits::cpu0.data                  17                       # number of overall hits
system.l2.overall_hits::total                      17                       # number of overall hits
system.l2.ReadSharedReq_misses::cpu0.data        14266                       # number of ReadSharedReq misses
system.l2.ReadSharedReq_misses::total           14266                       # number of ReadSharedReq misses
system.l2.demand_misses::cpu0.data              14266                       # number of demand (read+write) misses
system.l2.demand_misses::total                  14266                       # number of demand (read+write) misses
system.l2.overall_misses::cpu0.data             14266                       # number of overall misses
system.l2.overall_misses::total                 14266                       # number of overall misses
system.l2.ReadSharedReq_miss_latency::cpu0.data   1351441500                       # number of ReadSharedReq miss cycles
system.l2.ReadSharedReq_miss_latency::total   1351441500                       # number of ReadSharedReq miss cycles
system.l2.demand_miss_latency::cpu0.data   1351441500                       # number of demand (read+write) miss cycles
system.l2.demand_miss_latency::total       1351441500                       # number of demand (read+write) miss cycles
system.l2.overall_miss_latency::cpu0.data   1351441500                       # number of overall miss cycles
system.l2.overall_miss_latency::total      1351441500                       # number of overall miss cycles
system.l2.WritebackDirty_accesses::writebacks        13438                       # number of WritebackDirty accesses(hits+misses)
system.l2.WritebackDirty_accesses::total        13438                       # number of WritebackDirty accesses(hits+misses)
system.l2.ReadSharedReq_accesses::cpu0.data        14283                       # number of ReadSharedReq accesses(hits+misses)
system.l2.ReadSharedReq_accesses::total         14283                       # number of ReadSharedReq accesses(hits+misses)
system.l2.demand_accesses::cpu0.data            14283                       # number of demand (read+write) accesses
system.l2.demand_accesses::total                14283                       # number of demand (read+write) accesses
system.l2.overall_accesses::cpu0.data           14283                       # number of overall (read+write) accesses
system.l2.overall_accesses::total               14283                       # number of overall (read+write) accesses
system.l2.ReadSharedReq_miss_rate::cpu0.data     0.998810                       # miss rate for ReadSharedReq accesses
system.l2.ReadSharedReq_miss_rate::total     0.998810                       # miss rate for ReadSharedReq accesses
system.l2.demand_miss_rate::cpu0.data        0.998810                       # miss rate for demand accesses
system.l2.demand_miss_rate::total            0.998810                       # miss rate for demand accesses
system.l2.overall_miss_rate::cpu0.data       0.998810                       # miss rate for overall accesses
system.l2.overall_miss_rate::total           0.998810                       # miss rate for overall accesses
system.l2.ReadSharedReq_avg_miss_latency::cpu0.data 94731.634656                       # average ReadSharedReq miss latency
system.l2.ReadSharedReq_avg_miss_latency::total 94731.634656                       # average ReadSharedReq miss latency
system.l2.demand_avg_miss_latency::cpu0.data 94731.634656                       # average overall miss latency
system.l2.demand_avg_miss_latency::total 94731.634656                       # average overall miss latency
system.l2.overall_avg_miss_latency::cpu0.data 94731.634656                       # average overall miss latency
system.l2.overall_avg_miss_latency::total 94731.634656                       # average overall miss latency
system.l2.blocked_cycles::no_mshrs                  0                       # number of cycles access was blocked
system.l2.blocked_cycles::no_targets                0                       # number of cycles access was blocked
system.l2.blocked::no_mshrs                         0                       # number of cycles access was blocked
system.l2.blocked::no_targets                       0                       # number of cycles access was blocked
system.l2.avg_blocked_cycles::no_mshrs            nan                       # average number of cycles each access was blocked
system.l2.avg_blocked_cycles::no_targets          nan                       # average number of cycles each access was blocked
system.l2.writebacks::writebacks                13440                       # number of writebacks
system.l2.writebacks::total                     13440                       # number of writebacks
system.l2.CleanEvict_mshr_misses::writebacks            2                       # number of CleanEvict MSHR misses
system.l2.CleanEvict_mshr_misses::total             2                       # number of CleanEvict MSHR misses
system.l2.ReadSharedReq_mshr_misses::cpu0.data        14266                       # number of ReadSharedReq MSHR misses
system.l2.ReadSharedReq_mshr_misses::total        14266                       # number of ReadSharedReq MSHR misses
system.l2.demand_mshr_misses::cpu0.data         14266                       # number of demand (read+write) MSHR misses
system.l2.demand_mshr_misses::total             14266                       # number of demand (read+write) MSHR misses
system.l2.overall_mshr_misses::cpu0.data        14266                       # number of overall MSHR misses
system.l2.overall_mshr_misses::total            14266                       # number of overall MSHR misses
system.l2.ReadSharedReq_mshr_miss_latency::cpu0.data   1208781500                       # number of ReadSharedReq MSHR miss cycles
system.l2.ReadSharedReq_mshr_miss_latency::total   1208781500                       # number of ReadSharedReq MSHR miss cycles
system.l2.demand_mshr_miss_latency::cpu0.data   1208781500                       # number of demand (read+write) MSHR miss cycles
system.l2.demand_mshr_miss_latency::total   1208781500                       # number of demand (read+write) MSHR miss cycles
system.l2.overall_mshr_miss_latency::cpu0.data   1208781500                       # number of overall MSHR miss cycles
system.l2.overall_mshr_miss_latency::total   1208781500                       # number of overall MSHR miss cycles
system.l2.CleanEvict_mshr_miss_rate::writebacks          inf                       # mshr miss rate for CleanEvict accesses
system.l2.CleanEvict_mshr_miss_rate::total          inf                       # mshr miss rate for CleanEvict accesses
system.l2.ReadSharedReq_mshr_miss_rate::cpu0.data     0.998810                       # mshr miss rate for ReadSharedReq accesses
system.l2.ReadSharedReq_mshr_miss_rate::total     0.998810                       # mshr miss rate for ReadSharedReq accesses
system.l2.demand_mshr_miss_rate::cpu0.data     0.998810                       # mshr miss rate for demand accesses
system.l2.demand_mshr_miss_rate::total       0.998810                       # mshr miss rate for demand accesses
system.l2.overall_mshr_miss_rate::cpu0.data     0.998810                       # mshr miss rate for overall accesses
system.l2.overall_mshr_miss_rate::total      0.998810                       # mshr miss rate for overall accesses
system.l2.ReadSharedReq_avg_mshr_miss_latency::cpu0.data 84731.634656                       # average ReadSharedReq mshr miss latency
system.l2.ReadSharedReq_avg_mshr_miss_latency::total 84731.634656                       # average ReadSharedReq mshr miss latency
system.l2.demand_avg_mshr_miss_latency::cpu0.data 84731.634656                       # average overall mshr miss latency
system.l2.demand_avg_mshr_miss_latency::total 84731.634656                       # average overall mshr miss latency
system.l2.overall_avg_mshr_miss_latency::cpu0.data 84731.634656                       # average overall mshr miss latency
system.l2.overall_avg_mshr_miss_latency::total 84731.634656                       # average overall mshr miss latency
system.membus.snoop_filter.tot_requests         28531                       # Total number of requests made to the snoop filter.
system.membus.snoop_filter.hit_single_requests        14265                       # Number of requests hitting in the snoop filter with a single holder of the requested data.
system.membus.snoop_filter.hit_multi_requests            0                       # Number of requests hitting in the snoop filter with multiple (>1) holders of the requested data.
system.membus.snoop_filter.tot_snoops               0                       # Total number of snoops made to the snoop filter.
system.membus.snoop_filter.hit_single_snoops            0                       # Number of snoops hitting in the snoop filter with a single holder of the requested data.
system.membus.snoop_filter.hit_multi_snoops            0                       # Number of snoops hitting in the snoop filter with multiple (>1) holders of the requested data.
system.membus.pwrStateResidencyTicks::UNDEFINED  15267344125                       # Cumulative time (in ticks) in various power states
system.membus.trans_dist::ReadResp              14266                       # Transaction distribution
system.membus.trans_dist::WritebackDirty        13440                       # Transaction distribution
system.membus.trans_dist::CleanEvict              825                       # Transaction distribution
system.membus.trans_dist::ReadSharedReq         14266                       # Transaction distribution
system.membus.pkt_count_system.l2.mem_side::system.mem_ctrls.port        42797                       # Packet count per connected master and slave (bytes)
system.membus.pkt_count_system.l2.mem_side::total        42797                       # Packet count per connected master and slave (bytes)
system.membus.pkt_count::total                  42797                       # Packet count per connected master and slave (bytes)
system.membus.pkt_size_system.l2.mem_side::system.mem_ctrls.port      1773184                       # Cumulative packet size per connected master and slave (bytes)
system.membus.pkt_size_system.l2.mem_side::total      1773184                       # Cumulative packet size per connected master and slave (bytes)
system.membus.pkt_size::total                 1773184                       # Cumulative packet size per connected master and slave (bytes)
system.membus.snoops                                0                       # Total snoops (count)
system.membus.snoopTraffic                          0                       # Total snoop traffic (bytes)
system.membus.snoop_fanout::samples             14266                       # Request fanout histogram
system.membus.snoop_fanout::mean                    0                       # Request fanout histogram
system.membus.snoop_fanout::stdev                   0                       # Request fanout histogram
system.membus.snoop_fanout::underflows              0      0.00%      0.00% # Request fanout histogram
system.membus.snoop_fanout::0                   14266    100.00%    100.00% # Request fanout histogram
system.membus.snoop_fanout::1                       0      0.00%    100.00% # Request fanout histogram
system.membus.snoop_fanout::overflows               0      0.00%    100.00% # Request fanout histogram
system.membus.snoop_fanout::min_value               0                       # Request fanout histogram
system.membus.snoop_fanout::max_value               0                       # Request fanout histogram
system.membus.snoop_fanout::total               14266                       # Request fanout histogram
system.membus.reqLayer4.occupancy            85841500                       # Layer occupancy (ticks)
system.membus.reqLayer4.utilization               0.6                       # Layer utilization (%)
system.membus.respLayer1.occupancy           75969500                       # Layer occupancy (ticks)
system.membus.respLayer1.utilization              0.5                       # Layer utilization (%)
system.tol2bus.snoop_filter.tot_requests        28566                       # Total number of requests made to the snoop filter.
system.tol2bus.snoop_filter.hit_single_requests        14283                       # Number of requests hitting in the snoop filter with a single holder of the requested data.
system.tol2bus.snoop_filter.hit_multi_requests            0                       # Number of requests hitting in the snoop filter with multiple (>1) holders of the requested data.
system.tol2bus.snoop_filter.tot_snoops              3                       # Total number of snoops made to the snoop filter.
system.tol2bus.snoop_filter.hit_single_snoops            3                       # Number of snoops hitting in the snoop filter with a single holder of the requested data.
system.tol2bus.snoop_filter.hit_multi_snoops            0                       # Number of snoops hitting in the snoop filter with multiple (>1) holders of the requested data.
system.tol2bus.pwrStateResidencyTicks::UNDEFINED  15267344125                       # Cumulative time (in ticks) in various power states
system.tol2bus.trans_dist::ReadResp             14283                       # Transaction distribution
system.tol2bus.trans_dist::WritebackDirty        26878                       # Transaction distribution
system.tol2bus.trans_dist::CleanEvict            1671                       # Transaction distribution
system.tol2bus.trans_dist::ReadSharedReq        14283                       # Transaction distribution
system.tol2bus.pkt_count_system.cpu0.dcache.mem_side::system.l2.cpu_side        42849                       # Packet count per connected master and slave (bytes)
system.tol2bus.pkt_count::total                 42849                       # Packet count per connected master and slave (bytes)
system.tol2bus.pkt_size_system.cpu0.dcache.mem_side::system.l2.cpu_side      1774144                       # Cumulative packet size per connected master and slave (bytes)
system.tol2bus.pkt_size::total                1774144                       # Cumulative packet size per connected master and slave (bytes)
system.tol2bus.snoops                           14266                       # Total snoops (count)
system.tol2bus.snoopTraffic                    860160                       # Total snoop traffic (bytes)
system.tol2bus.snoop_fanout::samples            28549                       # Request fanout histogram
system.tol2bus.snoop_fanout::mean            0.000105                       # Request fanout histogram
system.tol2bus.snoop_fanout::stdev           0.010251                       # Request fanout histogram
system.tol2bus.snoop_fanout::underflows             0      0.00%      0.00% # Request fanout histogram
system.tol2bus.snoop_fanout::0                  28546     99.99%     99.99% # Request fanout histogram
system.tol2bus.snoop_fanout::1                      3      0.01%    100.00% # Request fanout histogram
system.tol2bus.snoop_fanout::2                      0      0.00%    100.00% # Request fanout histogram
system.tol2bus.snoop_fanout::3                      0      0.00%    100.00% # Request fanout histogram
system.tol2bus.snoop_fanout::4                      0      0.00%    100.00% # Request fanout histogram
system.tol2bus.snoop_fanout::5                      0      0.00%    100.00% # Request fanout histogram
system.tol2bus.snoop_fanout::6                      0      0.00%    100.00% # Request fanout histogram
system.tol2bus.snoop_fanout::7                      0      0.00%    100.00% # Request fanout histogram
system.tol2bus.snoop_fanout::8                      0      0.00%    100.00% # Request fanout histogram
system.tol2bus.snoop_fanout::overflows              0      0.00%    100.00% # Request fanout histogram
system.tol2bus.snoop_fanout::min_value              0                       # Request fanout histogram
system.tol2bus.snoop_fanout::max_value              1                       # Request fanout histogram
system.tol2bus.snoop_fanout::total              28549                       # Request fanout histogram
system.tol2bus.reqLayer0.occupancy           27721000                       # Layer occupancy (ticks)
system.tol2bus.reqLayer0.utilization              0.2                       # Layer utilization (%)
system.tol2bus.respLayer1.occupancy          21424500                       # Layer occupancy (ticks)
system.tol2bus.respLayer1.utilization             0.1                       # Layer utilization (%)

---------- End Simulation Statistics   ----------
