
---------- Begin Simulation Statistics ----------
sim_seconds                                  0.015267                       # Number of seconds simulated
sim_ticks                                 15267344125                       # Number of ticks simulated
final_tick                               6259611091250                       # Number of ticks from beginning of simulation (restored from checkpoints and never reset)
sim_freq                                 1000000000000                       # Frequency of simulated ticks
host_inst_rate                               82070235                       # Simulator instruction rate (inst/s)
host_op_rate                                152512339                       # Simulator op (including micro ops) rate (op/s)
host_tick_rate                              216298948                       # Simulator tick rate (ticks/s)
host_mem_usage                                1248940                       # Number of bytes of host memory used
host_seconds                                    70.58                       # Real time elapsed on the host
sim_insts                                  5792878951                       # Number of instructions simulated
sim_ops                                   10764997910                       # Number of ops (including micro ops) simulated
system.voltage_domain.voltage                       1                       # Voltage in Volts
system.clk_domain.clock                          1000                       # Clock period in ticks
system.mem_ctrls.pwrStateResidencyTicks::UNDEFINED  15267344125                       # Cumulative time (in ticks) in various power states
system.mem_ctrls.bytes_read::cpu0.data       12443776                       # Number of bytes read from this memory
system.mem_ctrls.bytes_read::total           12443776                       # Number of bytes read from this memory
system.mem_ctrls.bytes_written::writebacks        24704                       # Number of bytes written to this memory
system.mem_ctrls.bytes_written::total           24704                       # Number of bytes written to this memory
system.mem_ctrls.num_reads::cpu0.data          194434                       # Number of read requests responded to by this memory
system.mem_ctrls.num_reads::total              194434                       # Number of read requests responded to by this memory
system.mem_ctrls.num_writes::writebacks           386                       # Number of write requests responded to by this memory
system.mem_ctrls.num_writes::total                386                       # Number of write requests responded to by this memory
system.mem_ctrls.bw_read::cpu0.data         815058330                       # Total read bandwidth from this memory (bytes/s)
system.mem_ctrls.bw_read::total             815058330                       # Total read bandwidth from this memory (bytes/s)
system.mem_ctrls.bw_write::writebacks         1618094                       # Write bandwidth from this memory (bytes/s)
system.mem_ctrls.bw_write::total              1618094                       # Write bandwidth from this memory (bytes/s)
system.mem_ctrls.bw_total::writebacks         1618094                       # Total bandwidth to/from this memory (bytes/s)
system.mem_ctrls.bw_total::cpu0.data        815058330                       # Total bandwidth to/from this memory (bytes/s)
system.mem_ctrls.bw_total::total            816676424                       # Total bandwidth to/from this memory (bytes/s)
system.mem_ctrls.readReqs                      194434                       # Number of read requests accepted
system.mem_ctrls.writeReqs                        386                       # Number of write requests accepted
system.mem_ctrls.readBursts                    194434                       # Number of DRAM read bursts, including those serviced by the write queue
system.mem_ctrls.writeBursts                      386                       # Number of DRAM write bursts, including those merged in the write queue
system.mem_ctrls.bytesReadDRAM               12441408                       # Total number of bytes read from DRAM
system.mem_ctrls.bytesReadWrQ                    2368                       # Total number of bytes read from write queue
system.mem_ctrls.bytesWritten                   24576                       # Total number of bytes written to DRAM
system.mem_ctrls.bytesReadSys                12443776                       # Total read bytes from the system interface side
system.mem_ctrls.bytesWrittenSys                24704                       # Total written bytes from the system interface side
system.mem_ctrls.servicedByWrQ                     37                       # Number of DRAM read bursts serviced by the write queue
system.mem_ctrls.mergedWrBursts                     4                       # Number of DRAM write bursts merged with an existing one
system.mem_ctrls.neitherReadNorWriteReqs            0                       # Number of requests that are neither read nor write
system.mem_ctrls.perBankRdBursts::0             12020                       # Per bank write bursts
system.mem_ctrls.perBankRdBursts::1             12159                       # Per bank write bursts
system.mem_ctrls.perBankRdBursts::2             12097                       # Per bank write bursts
system.mem_ctrls.perBankRdBursts::3             12595                       # Per bank write bursts
system.mem_ctrls.perBankRdBursts::4             12597                       # Per bank write bursts
system.mem_ctrls.perBankRdBursts::5             12243                       # Per bank write bursts
system.mem_ctrls.perBankRdBursts::6             12411                       # Per bank write bursts
system.mem_ctrls.perBankRdBursts::7             12015                       # Per bank write bursts
system.mem_ctrls.perBankRdBursts::8             12308                       # Per bank write bursts
system.mem_ctrls.perBankRdBursts::9             11811                       # Per bank write bursts
system.mem_ctrls.perBankRdBursts::10            12165                       # Per bank write bursts
system.mem_ctrls.perBankRdBursts::11            12126                       # Per bank write bursts
system.mem_ctrls.perBankRdBursts::12            12258                       # Per bank write bursts
system.mem_ctrls.perBankRdBursts::13            12007                       # Per bank write bursts
system.mem_ctrls.perBankRdBursts::14            11775                       # Per bank write bursts
system.mem_ctrls.perBankRdBursts::15            11810                       # Per bank write bursts
system.mem_ctrls.perBankWrBursts::0                 0                       # Per bank write bursts
system.mem_ctrls.perBankWrBursts::1                 0                       # Per bank write bursts
system.mem_ctrls.perBankWrBursts::2                 1                       # Per bank write bursts
system.mem_ctrls.perBankWrBursts::3               248                       # Per bank write bursts
system.mem_ctrls.perBankWrBursts::4               103                       # Per bank write bursts
system.mem_ctrls.perBankWrBursts::5                 0                       # Per bank write bursts
system.mem_ctrls.perBankWrBursts::6                 0                       # Per bank write bursts
system.mem_ctrls.perBankWrBursts::7                21                       # Per bank write bursts
system.mem_ctrls.perBankWrBursts::8                 0                       # Per bank write bursts
system.mem_ctrls.perBankWrBursts::9                 0                       # Per bank write bursts
system.mem_ctrls.perBankWrBursts::10                0                       # Per bank write bursts
system.mem_ctrls.perBankWrBursts::11                0                       # Per bank write bursts
system.mem_ctrls.perBankWrBursts::12               11                       # Per bank write bursts
system.mem_ctrls.perBankWrBursts::13                0                       # Per bank write bursts
system.mem_ctrls.perBankWrBursts::14                0                       # Per bank write bursts
system.mem_ctrls.perBankWrBursts::15                0                       # Per bank write bursts
system.mem_ctrls.numRdRetry                         0                       # Number of times read queue was full causing retry
system.mem_ctrls.numWrRetry                         0                       # Number of times write queue was full causing retry
system.mem_ctrls.totGap                   15267326000                       # Total gap between requests
system.mem_ctrls.readPktSize::0                     0                       # Read request sizes (log2)
system.mem_ctrls.readPktSize::1                     0                       # Read request sizes (log2)
system.mem_ctrls.readPktSize::2                     0                       # Read request sizes (log2)
system.mem_ctrls.readPktSize::3                     0                       # Read request sizes (log2)
system.mem_ctrls.readPktSize::4                     0                       # Read request sizes (log2)
system.mem_ctrls.readPktSize::5                     0                       # Read request sizes (log2)
system.mem_ctrls.readPktSize::6                194434                       # Read request sizes (log2)
system.mem_ctrls.writePktSize::0                    0                       # Write request sizes (log2)
system.mem_ctrls.writePktSize::1                    0                       # Write request sizes (log2)
system.mem_ctrls.writePktSize::2                    0                       # Write request sizes (log2)
system.mem_ctrls.writePktSize::3                    0                       # Write request sizes (log2)
system.mem_ctrls.writePktSize::4                    0                       # Write request sizes (log2)
system.mem_ctrls.writePktSize::5                    0                       # Write request sizes (log2)
system.mem_ctrls.writePktSize::6                  386                       # Write request sizes (log2)
system.mem_ctrls.rdQLenPdf::0                  148847                       # What read queue length does an incoming req see
system.mem_ctrls.rdQLenPdf::1                   43280                       # What read queue length does an incoming req see
system.mem_ctrls.rdQLenPdf::2                    2246                       # What read queue length does an incoming req see
system.mem_ctrls.rdQLenPdf::3                      24                       # What read queue length does an incoming req see
system.mem_ctrls.rdQLenPdf::4                       0                       # What read queue length does an incoming req see
system.mem_ctrls.rdQLenPdf::5                       0                       # What read queue length does an incoming req see
system.mem_ctrls.rdQLenPdf::6                       0                       # What read queue length does an incoming req see
system.mem_ctrls.rdQLenPdf::7                       0                       # What read queue length does an incoming req see
system.mem_ctrls.rdQLenPdf::8                       0                       # What read queue length does an incoming req see
system.mem_ctrls.rdQLenPdf::9                       0                       # What read queue length does an incoming req see
system.mem_ctrls.rdQLenPdf::10                      0                       # What read queue length does an incoming req see
system.mem_ctrls.rdQLenPdf::11                      0                       # What read queue length does an incoming req see
system.mem_ctrls.rdQLenPdf::12                      0                       # What read queue length does an incoming req see
system.mem_ctrls.rdQLenPdf::13                      0                       # What read queue length does an incoming req see
system.mem_ctrls.rdQLenPdf::14                      0                       # What read queue length does an incoming req see
system.mem_ctrls.rdQLenPdf::15                      0                       # What read queue length does an incoming req see
system.mem_ctrls.rdQLenPdf::16                      0                       # What read queue length does an incoming req see
system.mem_ctrls.rdQLenPdf::17                      0                       # What read queue length does an incoming req see
system.mem_ctrls.rdQLenPdf::18                      0                       # What read queue length does an incoming req see
system.mem_ctrls.rdQLenPdf::19                      0                       # What read queue length does an incoming req see
system.mem_ctrls.rdQLenPdf::20                      0                       # What read queue length does an incoming req see
system.mem_ctrls.rdQLenPdf::21                      0                       # What read queue length does an incoming req see
system.mem_ctrls.rdQLenPdf::22                      0                       # What read queue length does an incoming req see
system.mem_ctrls.rdQLenPdf::23                      0                       # What read queue length does an incoming req see
system.mem_ctrls.rdQLenPdf::24                      0                       # What read queue length does an incoming req see
system.mem_ctrls.rdQLenPdf::25                      0                       # What read queue length does an incoming req see
system.mem_ctrls.rdQLenPdf::26                      0                       # What read queue length does an incoming req see
system.mem_ctrls.rdQLenPdf::27                      0                       # What read queue length does an incoming req see
system.mem_ctrls.rdQLenPdf::28                      0                       # What read queue length does an incoming req see
system.mem_ctrls.rdQLenPdf::29                      0                       # What read queue length does an incoming req see
system.mem_ctrls.rdQLenPdf::30                      0                       # What read queue length does an incoming req see
system.mem_ctrls.rdQLenPdf::31                      0                       # What read queue length does an incoming req see
system.mem_ctrls.wrQLenPdf::0                       0                       # What write queue length does an incoming req see
system.mem_ctrls.wrQLenPdf::1                       0                       # What write queue length does an incoming req see
system.mem_ctrls.wrQLenPdf::2                       0                       # What write queue length does an incoming req see
system.mem_ctrls.wrQLenPdf::3                       0                       # What write queue length does an incoming req see
system.mem_ctrls.wrQLenPdf::4                       0                       # What write queue length does an incoming req see
system.mem_ctrls.wrQLenPdf::5                       0                       # What write queue length does an incoming req see
system.mem_ctrls.wrQLenPdf::6                       0                       # What write queue length does an incoming req see
system.mem_ctrls.wrQLenPdf::7                       0                       # What write queue length does an incoming req see
system.mem_ctrls.wrQLenPdf::8                       0                       # What write queue length does an incoming req see
system.mem_ctrls.wrQLenPdf::9                       0                       # What write queue length does an incoming req see
system.mem_ctrls.wrQLenPdf::10                      0                       # What write queue length does an incoming req see
system.mem_ctrls.wrQLenPdf::11                      0                       # What write queue length does an incoming req see
system.mem_ctrls.wrQLenPdf::12                      0                       # What write queue length does an incoming req see
system.mem_ctrls.wrQLenPdf::13                      0                       # What write queue length does an incoming req see
system.mem_ctrls.wrQLenPdf::14                      0                       # What write queue length does an incoming req see
system.mem_ctrls.wrQLenPdf::15                      0                       # What write queue length does an incoming req see
system.mem_ctrls.wrQLenPdf::16                      0                       # What write queue length does an incoming req see
system.mem_ctrls.wrQLenPdf::17                     24                       # What write queue length does an incoming req see
system.mem_ctrls.wrQLenPdf::18                     24                       # What write queue length does an incoming req see
system.mem_ctrls.wrQLenPdf::19                     24                       # What write queue length does an incoming req see
system.mem_ctrls.wrQLenPdf::20                     24                       # What write queue length does an incoming req see
system.mem_ctrls.wrQLenPdf::21                     24                       # What write queue length does an incoming req see
system.mem_ctrls.wrQLenPdf::22                     23                       # What write queue length does an incoming req see
system.mem_ctrls.wrQLenPdf::23                     23                       # What write queue length does an incoming req see
system.mem_ctrls.wrQLenPdf::24                     24                       # What write queue length does an incoming req see
system.mem_ctrls.wrQLenPdf::25                     24                       # What write queue length does an incoming req see
system.mem_ctrls.wrQLenPdf::26                     24                       # What write queue length does an incoming req see
system.mem_ctrls.wrQLenPdf::27                     24                       # What write queue length does an incoming req see
system.mem_ctrls.wrQLenPdf::28                     24                       # What write queue length does an incoming req see
system.mem_ctrls.wrQLenPdf::29                     24                       # What write queue length does an incoming req see
system.mem_ctrls.wrQLenPdf::30                     24                       # What write queue length does an incoming req see
system.mem_ctrls.wrQLenPdf::31                     24                       # What write queue length does an incoming req see
system.mem_ctrls.wrQLenPdf::32                     24                       # What write queue length does an incoming req see
system.mem_ctrls.wrQLenPdf::33                      0                       # What write queue length does an incoming req see
system.mem_ctrls.wrQLenPdf::34                      0                       # What write queue length does an incoming req see
system.mem_ctrls.wrQLenPdf::35                      0                       # What write queue length does an incoming req see
system.mem_ctrls.wrQLenPdf::36                      0                       # What write queue length does an incoming req see
system.mem_ctrls.wrQLenPdf::37                      0                       # What write queue length does an incoming req see
system.mem_ctrls.wrQLenPdf::38                      0                       # What write queue length does an incoming req see
system.mem_ctrls.wrQLenPdf::39                      0                       # What write queue length does an incoming req see
system.mem_ctrls.wrQLenPdf::40                      0                       # What write queue length does an incoming req see
system.mem_ctrls.wrQLenPdf::41                      0                       # What write queue length does an incoming req see
system.mem_ctrls.wrQLenPdf::42                      0                       # What write queue length does an incoming req see
system.mem_ctrls.wrQLenPdf::43                      0                       # What write queue length does an incoming req see
system.mem_ctrls.wrQLenPdf::44                      0                       # What write queue length does an incoming req see
system.mem_ctrls.wrQLenPdf::45                      0                       # What write queue length does an incoming req see
system.mem_ctrls.wrQLenPdf::46                      0                       # What write queue length does an incoming req see
system.mem_ctrls.wrQLenPdf::47                      0                       # What write queue length does an incoming req see
system.mem_ctrls.wrQLenPdf::48                      0                       # What write queue length does an incoming req see
system.mem_ctrls.wrQLenPdf::49                      0                       # What write queue length does an incoming req see
system.mem_ctrls.wrQLenPdf::50                      0                       # What write queue length does an incoming req see
system.mem_ctrls.wrQLenPdf::51                      0                       # What write queue length does an incoming req see
system.mem_ctrls.wrQLenPdf::52                      0                       # What write queue length does an incoming req see
system.mem_ctrls.wrQLenPdf::53                      0                       # What write queue length does an incoming req see
system.mem_ctrls.wrQLenPdf::54                      0                       # What write queue length does an incoming req see
system.mem_ctrls.wrQLenPdf::55                      0                       # What write queue length does an incoming req see
system.mem_ctrls.wrQLenPdf::56                      0                       # What write queue length does an incoming req see
system.mem_ctrls.wrQLenPdf::57                      0                       # What write queue length does an incoming req see
system.mem_ctrls.wrQLenPdf::58                      0                       # What write queue length does an incoming req see
system.mem_ctrls.wrQLenPdf::59                      0                       # What write queue length does an incoming req see
system.mem_ctrls.wrQLenPdf::60                      0                       # What write queue length does an incoming req see
system.mem_ctrls.wrQLenPdf::61                      0                       # What write queue length does an incoming req see
system.mem_ctrls.wrQLenPdf::62                      0                       # What write queue length does an incoming req see
system.mem_ctrls.wrQLenPdf::63                      0                       # What write queue length does an incoming req see
system.mem_ctrls.bytesPerActivate::samples        97507                       # Bytes accessed per row activation
system.mem_ctrls.bytesPerActivate::mean    127.856256                       # Bytes accessed per row activation
system.mem_ctrls.bytesPerActivate::gmean   109.907026                       # Bytes accessed per row activation
system.mem_ctrls.bytesPerActivate::stdev    76.747436                       # Bytes accessed per row activation
system.mem_ctrls.bytesPerActivate::0-127        42390     43.47%     43.47% # Bytes accessed per row activation
system.mem_ctrls.bytesPerActivate::128-255        44285     45.42%     88.89% # Bytes accessed per row activation
system.mem_ctrls.bytesPerActivate::256-383         9357      9.60%     98.49% # Bytes accessed per row activation
system.mem_ctrls.bytesPerActivate::384-511         1286      1.32%     99.81% # Bytes accessed per row activation
system.mem_ctrls.bytesPerActivate::512-639          156      0.16%     99.97% # Bytes accessed per row activation
system.mem_ctrls.bytesPerActivate::640-767           13      0.01%     99.98% # Bytes accessed per row activation
system.mem_ctrls.bytesPerActivate::768-895            5      0.01%     99.98% # Bytes accessed per row activation
system.mem_ctrls.bytesPerActivate::896-1023            7      0.01%     99.99% # Bytes accessed per row activation
system.mem_ctrls.bytesPerActivate::1024-1151            8      0.01%    100.00% # Bytes accessed per row activation
system.mem_ctrls.bytesPerActivate::total        97507                       # Bytes accessed per row activation
system.mem_ctrls.rdPerTurnAround::samples           24                       # Reads before turning the bus around for writes
system.mem_ctrls.rdPerTurnAround::mean    8094.333333                       # Reads before turning the bus around for writes
system.mem_ctrls.rdPerTurnAround::gmean   7885.458596                       # Reads before turning the bus around for writes
system.mem_ctrls.rdPerTurnAround::stdev   1815.348491                       # Reads before turning the bus around for writes
system.mem_ctrls.rdPerTurnAround::4608-5119            2      8.33%      8.33% # Reads before turning the bus around for writes
system.mem_ctrls.rdPerTurnAround::5120-5631            1      4.17%     12.50% # Reads before turning the bus around for writes
system.mem_ctrls.rdPerTurnAround::5632-6143            1      4.17%     16.67% # Reads before turning the bus around for writes
system.mem_ctrls.rdPerTurnAround::6144-6655            3     12.50%     29.17% # Reads before turning the bus around for writes
system.mem_ctrls.rdPerTurnAround::6656-7167            2      8.33%     37.50% # Reads before turning the bus around for writes
system.mem_ctrls.rdPerTurnAround::7680-8191            1      4.17%     41.67% # Reads before turning the bus around for writes
system.mem_ctrls.rdPerTurnAround::8192-8703            4     16.67%     58.33% # Reads before turning the bus around for writes
system.mem_ctrls.rdPerTurnAround::8704-9215            3     12.50%     70.83% # Reads before turning the bus around for writes
system.mem_ctrls.rdPerTurnAround::9216-9727            2      8.33%     79.17% # Reads before turning the bus around for writes
system.mem_ctrls.rdPerTurnAround::9728-10239            2      8.33%     87.50% # Reads before turning the bus around for writes
system.mem_ctrls.rdPerTurnAround::10240-10751            2      8.33%     95.83% # Reads before turning the bus around for writes
system.mem_ctrls.rdPerTurnAround::10752-11263            1      4.17%    100.00% # Reads before turning the bus around for writes
system.mem_ctrls.rdPerTurnAround::total            24                       # Reads before turning the bus around for writes
system.mem_ctrls.wrPerTurnAround::samples           24                       # Writes before turning the bus around for reads
system.mem_ctrls.wrPerTurnAround::mean             16                       # Writes before turning the bus around for reads
system.mem_ctrls.wrPerTurnAround::gmean     16.000000                       # Writes before turning the bus around for reads
system.mem_ctrls.wrPerTurnAround::16               24    100.00%    100.00% # Writes before turning the bus around for reads
system.mem_ctrls.wrPerTurnAround::total            24                       # Writes before turning the bus around for reads
system.mem_ctrls.totQLat                   4757293250                       # Total ticks spent queuing
system.mem_ctrls.totMemAccLat              8402237000                       # Total ticks spent from burst creation until serviced by the DRAM
system.mem_ctrls.totBusLat                  971985000                       # Total ticks spent in databus transfers
system.mem_ctrls.avgQLat                     24472.05                       # Average queueing delay per DRAM burst
system.mem_ctrls.avgBusLat                    5000.00                       # Average bus latency per DRAM burst
system.mem_ctrls.avgMemAccLat                43222.05                       # Average memory access latency per DRAM burst
system.mem_ctrls.avgRdBW                       814.90                       # Average DRAM read bandwidth in MiByte/s
system.mem_ctrls.avgWrBW                         1.61                       # Average achieved write bandwidth in MiByte/s
system.mem_ctrls.avgRdBWSys                    815.06                       # Average system read bandwidth in MiByte/s
system.mem_ctrls.avgWrBWSys                      1.62                       # Average system write bandwidth in MiByte/s
system.mem_ctrls.peakBW                      12800.00                       # Theoretical peak bandwidth in MiByte/s
system.mem_ctrls.busUtil                         6.38                       # Data bus utilization in percentage
system.mem_ctrls.busUtilRead                     6.37                       # Data bus utilization in percentage for reads
system.mem_ctrls.busUtilWrite                    0.01                       # Data bus utilization in percentage for writes
system.mem_ctrls.avgRdQLen                       1.30                       # Average read queue length when enqueuing
system.mem_ctrls.avgWrQLen                      25.08                       # Average write queue length when enqueuing
system.mem_ctrls.readRowHits                    96946                       # Number of row buffer hits during reads
system.mem_ctrls.writeRowHits                     331                       # Number of row buffer hits during writes
system.mem_ctrls.readRowHitRate                 49.87                       # Row buffer hit rate for reads
system.mem_ctrls.writeRowHitRate                86.65                       # Row buffer hit rate for writes
system.mem_ctrls.avgGap                      78366.32                       # Average gap between requests
system.mem_ctrls.pageHitRate                    49.94                       # Row buffer hit rate, read and write combined
system.mem_ctrls_0.actEnergy                351566460                       # Energy for activate commands per rank (pJ)
system.mem_ctrls_0.preEnergy                186873390                       # Energy for precharge commands per rank (pJ)
system.mem_ctrls_0.readEnergy               700698180                       # Energy for read commands per rank (pJ)
system.mem_ctrls_0.writeEnergy                1947060                       # Energy for write commands per rank (pJ)
system.mem_ctrls_0.refreshEnergy         1205309040.000000                       # Energy for refresh commands per rank (pJ)
system.mem_ctrls_0.actBackEnergy           1648123650                       # Energy for active background per rank (pJ)
system.mem_ctrls_0.preBackEnergy             24491520                       # Energy for precharge background per rank (pJ)
system.mem_ctrls_0.actPowerDownEnergy      5165338290                       # Energy for active power-down per rank (pJ)
system.mem_ctrls_0.prePowerDownEnergy       100516320                       # Energy for precharge power-down per rank (pJ)
system.mem_ctrls_0.selfRefreshEnergy                0                       # Energy for self refresh per rank (pJ)
system.mem_ctrls_0.totalEnergy             9384863910                       # Total energy per rank (pJ)
system.mem_ctrls_0.averagePower            614.701800                       # Core power per rank (mW)
system.mem_ctrls_0.totalIdleTime          11589378875                       # Total Idle time Per DRAM Rank
system.mem_ctrls_0.memoryStateTime::IDLE      9456000                       # Time in different power states
system.mem_ctrls_0.memoryStateTime::REF     509860000                       # Time in different power states
system.mem_ctrls_0.memoryStateTime::SREF            0                       # Time in different power states
system.mem_ctrls_0.memoryStateTime::PRE_PDN    261755000                       # Time in different power states
system.mem_ctrls_0.memoryStateTime::ACT    3158188000                       # Time in different power states
system.mem_ctrls_0.memoryStateTime::ACT_PDN  11328085125                       # Time in different power states
system.mem_ctrls_1.actEnergy                344612100                       # Energy for activate commands per rank (pJ)
system.mem_ctrls_1.preEnergy                183165675                       # Energy for precharge commands per rank (pJ)
system.mem_ctrls_1.readEnergy               687296400                       # Energy for read commands per rank (pJ)
system.mem_ctrls_1.writeEnergy                  57420                       # Energy for write commands per rank (pJ)
system.mem_ctrls_1.refreshEnergy         1205309040.000000                       # Energy for refresh commands per rank (pJ)
system.mem_ctrls_1.actBackEnergy           1617667980                       # Energy for active background per rank (pJ)
system.mem_ctrls_1.preBackEnergy             24448800                       # Energy for precharge background per rank (pJ)
system.mem_ctrls_1.actPowerDownEnergy      5184438990                       # Energy for active power-down per rank (pJ)
system.mem_ctrls_1.prePowerDownEnergy       110121120                       # Energy for precharge power-down per rank (pJ)
system.mem_ctrls_1.selfRefreshEnergy                0                       # Energy for self refresh per rank (pJ)
system.mem_ctrls_1.totalEnergy             9357117525                       # Total energy per rank (pJ)
system.mem_ctrls_1.averagePower            612.884432                       # Core power per rank (mW)
system.mem_ctrls_1.totalIdleTime          11654794875                       # Total Idle time Per DRAM Rank
system.mem_ctrls_1.memoryStateTime::IDLE      9492000                       # Time in different power states
system.mem_ctrls_1.memoryStateTime::REF     509860000                       # Time in different power states
system.mem_ctrls_1.memoryStateTime::SREF            0                       # Time in different power states
system.mem_ctrls_1.memoryStateTime::PRE_PDN    286422250                       # Time in different power states
system.mem_ctrls_1.memoryStateTime::ACT    3093169750                       # Time in different power states
system.mem_ctrls_1.memoryStateTime::ACT_PDN  11368400125                       # Time in different power states
system.pwrStateResidencyTicks::UNDEFINED  15267344125                       # Cumulative time (in ticks) in various power states
system.cpu0.branchPred.lookups                1213747                       # Number of BP lookups
system.cpu0.branchPred.condPredicted          1213747                       # Number of conditional branches predicted
system.cpu0.branchPred.condIncorrect            48925                       # Number of conditional branches incorrect
system.cpu0.branchPred.BTBLookups              953395                       # Number of BTB lookups
system.cpu0.branchPred.BTBHits                      0                       # Number of BTB hits
system.cpu0.branchPred.BTBCorrect                   0                       # Number of correct BTB predictions (this stat may not work properly.
system.cpu0.branchPred.BTBHitPct             0.000000                       # BTB Hit Percentage
system.cpu0.branchPred.usedRAS                  34993                       # Number of times the RAS was used to get a target.
system.cpu0.branchPred.RASInCorrect              5128                       # Number of incorrect RAS predictions.
system.cpu0.branchPred.indirectLookups         953395                       # Number of indirect predictor lookups.
system.cpu0.branchPred.indirectHits            517289                       # Number of indirect target hits.
system.cpu0.branchPred.indirectMisses          436106                       # Number of indirect misses.
system.cpu0.branchPredindirectMispredicted        17994                       # Number of mispredicted indirect branches.
system.cpu_voltage_domain.voltage                   1                       # Voltage in Volts
system.cpu_clk_domain.clock                       500                       # Clock period in ticks
system.cpu0.dtb.walker.pwrStateResidencyTicks::UNDEFINED  15267344125                       # Cumulative time (in ticks) in various power states
system.cpu0.dtb.rdAccesses                     612638                       # TLB accesses on read requests
system.cpu0.dtb.wrAccesses                      46242                       # TLB accesses on write requests
system.cpu0.dtb.rdMisses                       139217                       # TLB misses on read requests
system.cpu0.dtb.wrMisses                          788                       # TLB misses on write requests
system.cpu0.apic_clk_domain.clock                8000                       # Clock period in ticks
system.cpu0.interrupts.pwrStateResidencyTicks::UNDEFINED  15267344125                       # Cumulative time (in ticks) in various power states
system.cpu0.itb.walker.pwrStateResidencyTicks::UNDEFINED  15267344125                       # Cumulative time (in ticks) in various power states
system.cpu0.itb.rdAccesses                          0                       # TLB accesses on read requests
system.cpu0.itb.wrAccesses                    1008883                       # TLB accesses on write requests
system.cpu0.itb.rdMisses                            0                       # TLB misses on read requests
system.cpu0.itb.wrMisses                         3037                       # TLB misses on write requests
system.cpu0.workload.numSyscalls                    0                       # Number of system calls
system.cpu0.pwrStateResidencyTicks::ON    15267344125                       # Cumulative time (in ticks) in various power states
system.cpu0.numCycles                        30534688                       # number of cpu cycles simulated
system.cpu0.numWorkItemsStarted                     0                       # number of work items this cpu started
system.cpu0.numWorkItemsCompleted                   0                       # number of work items this cpu completed
system.cpu0.fetch.icacheStallCycles           1031954                       # Number of cycles fetch is stalled on an Icache miss
system.cpu0.fetch.Insts                       3565682                       # Number of instructions fetch has processed
system.cpu0.fetch.Branches                    1213747                       # Number of branches that fetch encountered
system.cpu0.fetch.predictedBranches            552282                       # Number of branches that fetch has predicted taken
system.cpu0.fetch.Cycles                     29384851                       # Number of cycles fetch has run and was not squashing or blocked
system.cpu0.fetch.SquashCycles                  99718                       # Number of cycles fetch has spent squashing
system.cpu0.fetch.TlbCycles                      1271                       # Number of cycles fetch has spent waiting for tlb
system.cpu0.fetch.MiscStallCycles                 641                       # Number of cycles fetch has spent waiting on interrupts, or bad addresses, or out of MSHRs
system.cpu0.fetch.PendingTrapStallCycles        27918                       # Number of stall cycles due to pending traps
system.cpu0.fetch.CacheLines                  1005846                       # Number of cache lines fetched
system.cpu0.fetch.IcacheSquashes                 6025                       # Number of outstanding Icache misses that were squashed
system.cpu0.fetch.ItlbSquashes                      4                       # Number of outstanding ITLB misses that were squashed
system.cpu0.fetch.rateDist::samples          30496494                       # Number of instructions fetched each cycle (Total)
system.cpu0.fetch.rateDist::mean             0.235373                       # Number of instructions fetched each cycle (Total)
system.cpu0.fetch.rateDist::stdev            1.224089                       # Number of instructions fetched each cycle (Total)
system.cpu0.fetch.rateDist::underflows              0      0.00%      0.00% # Number of instructions fetched each cycle (Total)
system.cpu0.fetch.rateDist::0                29095555     95.41%     95.41% # Number of instructions fetched each cycle (Total)
system.cpu0.fetch.rateDist::1                   19444      0.06%     95.47% # Number of instructions fetched each cycle (Total)
system.cpu0.fetch.rateDist::2                  505052      1.66%     97.13% # Number of instructions fetched each cycle (Total)
system.cpu0.fetch.rateDist::3                   23522      0.08%     97.20% # Number of instructions fetched each cycle (Total)
system.cpu0.fetch.rateDist::4                  107005      0.35%     97.55% # Number of instructions fetched each cycle (Total)
system.cpu0.fetch.rateDist::5                   48361      0.16%     97.71% # Number of instructions fetched each cycle (Total)
system.cpu0.fetch.rateDist::6                   77095      0.25%     97.97% # Number of instructions fetched each cycle (Total)
system.cpu0.fetch.rateDist::7                   18138      0.06%     98.02% # Number of instructions fetched each cycle (Total)
system.cpu0.fetch.rateDist::8                  602322      1.98%    100.00% # Number of instructions fetched each cycle (Total)
system.cpu0.fetch.rateDist::overflows               0      0.00%    100.00% # Number of instructions fetched each cycle (Total)
system.cpu0.fetch.rateDist::min_value               0                       # Number of instructions fetched each cycle (Total)
system.cpu0.fetch.rateDist::max_value               8                       # Number of instructions fetched each cycle (Total)
system.cpu0.fetch.rateDist::total            30496494                       # Number of instructions fetched each cycle (Total)
system.cpu0.fetch.branchRate                 0.039750                       # Number of branch fetches per cycle
system.cpu0.fetch.rate                       0.116775                       # Number of inst fetches per cycle
system.cpu0.decode.IdleCycles                  492250                       # Number of cycles decode is idle
system.cpu0.decode.BlockedCycles             29049181                       # Number of cycles decode is blocked
system.cpu0.decode.RunCycles                   629261                       # Number of cycles decode is running
system.cpu0.decode.UnblockCycles               275943                       # Number of cycles decode is unblocking
system.cpu0.decode.SquashCycles                 49859                       # Number of cycles decode is squashing
system.cpu0.decode.DecodedInsts               5996030                       # Number of instructions handled by decode
system.cpu0.rename.SquashCycles                 49859                       # Number of cycles rename is squashing
system.cpu0.rename.IdleCycles                  573790                       # Number of cycles rename is idle
system.cpu0.rename.BlockCycles               27995096                       # Number of cycles rename is blocking
system.cpu0.rename.serializeStallCycles          8827                       # count of cycles rename stalled for serializing inst
system.cpu0.rename.RunCycles                   755533                       # Number of cycles rename is running
system.cpu0.rename.UnblockCycles              1113389                       # Number of cycles rename is unblocking
system.cpu0.rename.RenamedInsts               5763490                       # Number of instructions processed by rename
system.cpu0.rename.ROBFullEvents                38705                       # Number of times rename has blocked due to ROB full
system.cpu0.rename.IQFullEvents                955939                       # Number of times rename has blocked due to IQ full
system.cpu0.rename.LQFullEvents                 93920                       # Number of times rename has blocked due to LQ full
system.cpu0.rename.SQFullEvents                   469                       # Number of times rename has blocked due to SQ full
system.cpu0.rename.RenamedOperands            6876213                       # Number of destination operands rename has renamed
system.cpu0.rename.RenameLookups             15983322                       # Number of register rename lookups that rename has made
system.cpu0.rename.int_rename_lookups         7581252                       # Number of integer rename lookups
system.cpu0.rename.fp_rename_lookups            33375                       # Number of floating rename lookups
system.cpu0.rename.CommittedMaps              2759976                       # Number of HB maps that are committed
system.cpu0.rename.UndoneMaps                 4116177                       # Number of HB maps that are undone due to squashing
system.cpu0.rename.serializingInsts               212                       # count of serializing insts renamed
system.cpu0.rename.tempSerializingInsts           255                       # count of temporary serializing insts renamed
system.cpu0.rename.skidInsts                  1770495                       # count of insts added to the skid buffer
system.cpu0.memDep0.insertedLoads             1014842                       # Number of loads inserted to the mem dependence unit.
system.cpu0.memDep0.insertedStores              68675                       # Number of stores inserted to the mem dependence unit.
system.cpu0.memDep0.conflictingLoads             4554                       # Number of conflicting loads.
system.cpu0.memDep0.conflictingStores            4854                       # Number of conflicting stores.
system.cpu0.iq.iqInstsAdded                   5469135                       # Number of instructions added to the IQ (excludes non-spec)
system.cpu0.iq.iqNonSpecInstsAdded               4706                       # Number of non-speculative instructions added to the IQ
system.cpu0.iq.iqInstsIssued                  4047495                       # Number of instructions issued
system.cpu0.iq.iqSquashedInstsIssued             5739                       # Number of squashed instructions issued
system.cpu0.iq.iqSquashedInstsExamined        3180119                       # Number of squashed instructions iterated over during squash; mainly for profiling
system.cpu0.iq.iqSquashedOperandsExamined      6527723                       # Number of squashed operands that are examined and possibly removed from graph
system.cpu0.iq.iqSquashedNonSpecRemoved          4706                       # Number of squashed non-spec instructions that were removed
system.cpu0.iq.issued_per_cycle::samples     30496494                       # Number of insts issued each cycle
system.cpu0.iq.issued_per_cycle::mean        0.132720                       # Number of insts issued each cycle
system.cpu0.iq.issued_per_cycle::stdev       0.656518                       # Number of insts issued each cycle
system.cpu0.iq.issued_per_cycle::underflows            0      0.00%      0.00% # Number of insts issued each cycle
system.cpu0.iq.issued_per_cycle::0           28757575     94.30%     94.30% # Number of insts issued each cycle
system.cpu0.iq.issued_per_cycle::1             738844      2.42%     96.72% # Number of insts issued each cycle
system.cpu0.iq.issued_per_cycle::2             374018      1.23%     97.95% # Number of insts issued each cycle
system.cpu0.iq.issued_per_cycle::3             250366      0.82%     98.77% # Number of insts issued each cycle
system.cpu0.iq.issued_per_cycle::4             213688      0.70%     99.47% # Number of insts issued each cycle
system.cpu0.iq.issued_per_cycle::5              68470      0.22%     99.69% # Number of insts issued each cycle
system.cpu0.iq.issued_per_cycle::6              57165      0.19%     99.88% # Number of insts issued each cycle
system.cpu0.iq.issued_per_cycle::7              21519      0.07%     99.95% # Number of insts issued each cycle
system.cpu0.iq.issued_per_cycle::8              14849      0.05%    100.00% # Number of insts issued each cycle
system.cpu0.iq.issued_per_cycle::overflows            0      0.00%    100.00% # Number of insts issued each cycle
system.cpu0.iq.issued_per_cycle::min_value            0                       # Number of insts issued each cycle
system.cpu0.iq.issued_per_cycle::max_value            8                       # Number of insts issued each cycle
system.cpu0.iq.issued_per_cycle::total       30496494                       # Number of insts issued each cycle
system.cpu0.iq.fu_full::No_OpClass                  0      0.00%      0.00% # attempts to use FU when none available
system.cpu0.iq.fu_full::IntAlu                   9452     67.59%     67.59% # attempts to use FU when none available
system.cpu0.iq.fu_full::IntMult                     0      0.00%     67.59% # attempts to use FU when none available
system.cpu0.iq.fu_full::IntDiv                      0      0.00%     67.59% # attempts to use FU when none available
system.cpu0.iq.fu_full::FloatAdd                  963      6.89%     74.48% # attempts to use FU when none available
system.cpu0.iq.fu_full::FloatCmp                    0      0.00%     74.48% # attempts to use FU when none available
system.cpu0.iq.fu_full::FloatCvt                    0      0.00%     74.48% # attempts to use FU when none available
system.cpu0.iq.fu_full::FloatMult                   0      0.00%     74.48% # attempts to use FU when none available
system.cpu0.iq.fu_full::FloatMultAcc                0      0.00%     74.48% # attempts to use FU when none available
system.cpu0.iq.fu_full::FloatDiv                    0      0.00%     74.48% # attempts to use FU when none available
system.cpu0.iq.fu_full::FloatMisc                   0      0.00%     74.48% # attempts to use FU when none available
system.cpu0.iq.fu_full::FloatSqrt                   0      0.00%     74.48% # attempts to use FU when none available
system.cpu0.iq.fu_full::SimdAdd                     0      0.00%     74.48% # attempts to use FU when none available
system.cpu0.iq.fu_full::SimdAddAcc                  0      0.00%     74.48% # attempts to use FU when none available
system.cpu0.iq.fu_full::SimdAlu                     0      0.00%     74.48% # attempts to use FU when none available
system.cpu0.iq.fu_full::SimdCmp                     0      0.00%     74.48% # attempts to use FU when none available
system.cpu0.iq.fu_full::SimdCvt                     0      0.00%     74.48% # attempts to use FU when none available
system.cpu0.iq.fu_full::SimdMisc                    0      0.00%     74.48% # attempts to use FU when none available
system.cpu0.iq.fu_full::SimdMult                    0      0.00%     74.48% # attempts to use FU when none available
system.cpu0.iq.fu_full::SimdMultAcc                 0      0.00%     74.48% # attempts to use FU when none available
system.cpu0.iq.fu_full::SimdShift                   0      0.00%     74.48% # attempts to use FU when none available
system.cpu0.iq.fu_full::SimdShiftAcc                0      0.00%     74.48% # attempts to use FU when none available
system.cpu0.iq.fu_full::SimdSqrt                    0      0.00%     74.48% # attempts to use FU when none available
system.cpu0.iq.fu_full::SimdFloatAdd                0      0.00%     74.48% # attempts to use FU when none available
system.cpu0.iq.fu_full::SimdFloatAlu                0      0.00%     74.48% # attempts to use FU when none available
system.cpu0.iq.fu_full::SimdFloatCmp                0      0.00%     74.48% # attempts to use FU when none available
system.cpu0.iq.fu_full::SimdFloatCvt                0      0.00%     74.48% # attempts to use FU when none available
system.cpu0.iq.fu_full::SimdFloatDiv                0      0.00%     74.48% # attempts to use FU when none available
system.cpu0.iq.fu_full::SimdFloatMisc               0      0.00%     74.48% # attempts to use FU when none available
system.cpu0.iq.fu_full::SimdFloatMult               0      0.00%     74.48% # attempts to use FU when none available
system.cpu0.iq.fu_full::SimdFloatMultAcc            0      0.00%     74.48% # attempts to use FU when none available
system.cpu0.iq.fu_full::SimdFloatSqrt               0      0.00%     74.48% # attempts to use FU when none available
system.cpu0.iq.fu_full::MemRead                  3194     22.84%     97.32% # attempts to use FU when none available
system.cpu0.iq.fu_full::MemWrite                  233      1.67%     98.98% # attempts to use FU when none available
system.cpu0.iq.fu_full::FloatMemRead              131      0.94%     99.92% # attempts to use FU when none available
system.cpu0.iq.fu_full::FloatMemWrite              11      0.08%    100.00% # attempts to use FU when none available
system.cpu0.iq.fu_full::IprAccess                   0      0.00%    100.00% # attempts to use FU when none available
system.cpu0.iq.fu_full::InstPrefetch                0      0.00%    100.00% # attempts to use FU when none available
system.cpu0.iq.FU_type_0::No_OpClass            13657      0.34%      0.34% # Type of FU issued
system.cpu0.iq.FU_type_0::IntAlu              3323406     82.11%     82.45% # Type of FU issued
system.cpu0.iq.FU_type_0::IntMult                1250      0.03%     82.48% # Type of FU issued
system.cpu0.iq.FU_type_0::IntDiv                 8622      0.21%     82.69% # Type of FU issued
system.cpu0.iq.FU_type_0::FloatAdd              11988      0.30%     82.99% # Type of FU issued
system.cpu0.iq.FU_type_0::FloatCmp                  0      0.00%     82.99% # Type of FU issued
system.cpu0.iq.FU_type_0::FloatCvt                  0      0.00%     82.99% # Type of FU issued
system.cpu0.iq.FU_type_0::FloatMult                 0      0.00%     82.99% # Type of FU issued
system.cpu0.iq.FU_type_0::FloatMultAcc              0      0.00%     82.99% # Type of FU issued
system.cpu0.iq.FU_type_0::FloatDiv                  0      0.00%     82.99% # Type of FU issued
system.cpu0.iq.FU_type_0::FloatMisc                 0      0.00%     82.99% # Type of FU issued
system.cpu0.iq.FU_type_0::FloatSqrt                 0      0.00%     82.99% # Type of FU issued
system.cpu0.iq.FU_type_0::SimdAdd                   0      0.00%     82.99% # Type of FU issued
system.cpu0.iq.FU_type_0::SimdAddAcc                0      0.00%     82.99% # Type of FU issued
system.cpu0.iq.FU_type_0::SimdAlu                   0      0.00%     82.99% # Type of FU issued
system.cpu0.iq.FU_type_0::SimdCmp                   0      0.00%     82.99% # Type of FU issued
system.cpu0.iq.FU_type_0::SimdCvt                   0      0.00%     82.99% # Type of FU issued
system.cpu0.iq.FU_type_0::SimdMisc                  0      0.00%     82.99% # Type of FU issued
system.cpu0.iq.FU_type_0::SimdMult                  0      0.00%     82.99% # Type of FU issued
system.cpu0.iq.FU_type_0::SimdMultAcc               0      0.00%     82.99% # Type of FU issued
system.cpu0.iq.FU_type_0::SimdShift                 0      0.00%     82.99% # Type of FU issued
system.cpu0.iq.FU_type_0::SimdShiftAcc              0      0.00%     82.99% # Type of FU issued
system.cpu0.iq.FU_type_0::SimdSqrt                  0      0.00%     82.99% # Type of FU issued
system.cpu0.iq.FU_type_0::SimdFloatAdd              0      0.00%     82.99% # Type of FU issued
system.cpu0.iq.FU_type_0::SimdFloatAlu              0      0.00%     82.99% # Type of FU issued
system.cpu0.iq.FU_type_0::SimdFloatCmp              0      0.00%     82.99% # Type of FU issued
system.cpu0.iq.FU_type_0::SimdFloatCvt              0      0.00%     82.99% # Type of FU issued
system.cpu0.iq.FU_type_0::SimdFloatDiv              0      0.00%     82.99% # Type of FU issued
system.cpu0.iq.FU_type_0::SimdFloatMisc             0      0.00%     82.99% # Type of FU issued
system.cpu0.iq.FU_type_0::SimdFloatMult             0      0.00%     82.99% # Type of FU issued
system.cpu0.iq.FU_type_0::SimdFloatMultAcc            0      0.00%     82.99% # Type of FU issued
system.cpu0.iq.FU_type_0::SimdFloatSqrt             0      0.00%     82.99% # Type of FU issued
system.cpu0.iq.FU_type_0::MemRead              636167     15.72%     98.71% # Type of FU issued
system.cpu0.iq.FU_type_0::MemWrite              49837      1.23%     99.94% # Type of FU issued
system.cpu0.iq.FU_type_0::FloatMemRead           2516      0.06%    100.00% # Type of FU issued
system.cpu0.iq.FU_type_0::FloatMemWrite            52      0.00%    100.00% # Type of FU issued
system.cpu0.iq.FU_type_0::IprAccess                 0      0.00%    100.00% # Type of FU issued
system.cpu0.iq.FU_type_0::InstPrefetch              0      0.00%    100.00% # Type of FU issued
system.cpu0.iq.FU_type_0::total               4047495                       # Type of FU issued
system.cpu0.iq.rate                          0.132554                       # Inst issue rate
system.cpu0.iq.fu_busy_cnt                      13984                       # FU busy when requested
system.cpu0.iq.fu_busy_rate                  0.003455                       # FU busy rate (busy events/executed inst)
system.cpu0.iq.int_inst_queue_reads          38580827                       # Number of integer instruction queue reads
system.cpu0.iq.int_inst_queue_writes          8625085                       # Number of integer instruction queue writes
system.cpu0.iq.int_inst_queue_wakeup_accesses      3890126                       # Number of integer instruction queue wakeup accesses
system.cpu0.iq.fp_inst_queue_reads              30380                       # Number of floating instruction queue reads
system.cpu0.iq.fp_inst_queue_writes             28876                       # Number of floating instruction queue writes
system.cpu0.iq.fp_inst_queue_wakeup_accesses        13132                       # Number of floating instruction queue wakeup accesses
system.cpu0.iq.vec_inst_queue_reads                 0                       # Number of vector instruction queue reads
system.cpu0.iq.vec_inst_queue_writes                0                       # Number of vector instruction queue writes
system.cpu0.iq.vec_inst_queue_wakeup_accesses            0                       # Number of vector instruction queue wakeup accesses
system.cpu0.iq.int_alu_accesses               4032156                       # Number of integer alu accesses
system.cpu0.iq.fp_alu_accesses                  15666                       # Number of floating point alu accesses
system.cpu0.iq.vec_alu_accesses                     0                       # Number of vector alu accesses
system.cpu0.iew.lsq.thread0.forwLoads            3984                       # Number of loads that had data forwarded from stores
system.cpu0.iew.lsq.thread0.invAddrLoads            0                       # Number of loads ignored due to an invalid address
system.cpu0.iew.lsq.thread0.squashedLoads       590460                       # Number of loads squashed
system.cpu0.iew.lsq.thread0.ignoredResponses          124                       # Number of memory responses ignored because the instruction is squashed
system.cpu0.iew.lsq.thread0.memOrderViolation            2                       # Number of memory ordering violations
system.cpu0.iew.lsq.thread0.squashedStores        43452                       # Number of stores squashed
system.cpu0.iew.lsq.thread0.invAddrSwpfs            0                       # Number of software prefetches ignored due to an invalid address
system.cpu0.iew.lsq.thread0.blockedLoads            0                       # Number of blocked loads due to partial load-store forwarding
system.cpu0.iew.lsq.thread0.rescheduledLoads           35                       # Number of loads that were rescheduled
system.cpu0.iew.lsq.thread0.cacheBlocked         1268                       # Number of times an access to memory failed due to the cache being blocked
system.cpu0.iew.iewIdleCycles                       0                       # Number of cycles IEW is idle
system.cpu0.iew.iewSquashCycles                 49859                       # Number of cycles IEW is squashing
system.cpu0.iew.iewBlockCycles               26419505                       # Number of cycles IEW is blocking
system.cpu0.iew.iewUnblockCycles               228227                       # Number of cycles IEW is unblocking
system.cpu0.iew.iewDispatchedInsts            5473841                       # Number of instructions dispatched to IQ
system.cpu0.iew.iewDispSquashedInsts             3224                       # Number of squashed instructions skipped by dispatch
system.cpu0.iew.iewDispLoadInsts              1014842                       # Number of dispatched load instructions
system.cpu0.iew.iewDispStoreInsts               68675                       # Number of dispatched store instructions
system.cpu0.iew.iewDispNonSpecInsts              1706                       # Number of dispatched non-speculative instructions
system.cpu0.iew.iewIQFullEvents                 13324                       # Number of times the IQ has become full, causing a stall
system.cpu0.iew.iewLSQFullEvents                28159                       # Number of times the LSQ has become full, causing a stall
system.cpu0.iew.memOrderViolationEvents             2                       # Number of memory order violations
system.cpu0.iew.predictedTakenIncorrect         25254                       # Number of branches that were predicted taken incorrectly
system.cpu0.iew.predictedNotTakenIncorrect        30772                       # Number of branches that were predicted not taken incorrectly
system.cpu0.iew.branchMispredicts               56026                       # Number of branch mispredicts detected at execute
system.cpu0.iew.iewExecutedInsts              3977859                       # Number of executed instructions
system.cpu0.iew.iewExecLoadInsts               612411                       # Number of load instructions executed
system.cpu0.iew.iewExecSquashedInsts            69636                       # Number of squashed instructions skipped in execute
system.cpu0.iew.exec_swp                            0                       # number of swp insts executed
system.cpu0.iew.exec_nop                            0                       # number of nop insts executed
system.cpu0.iew.exec_refs                      658634                       # number of memory reference insts executed
system.cpu0.iew.exec_branches                  502637                       # Number of branches executed
system.cpu0.iew.exec_stores                     46223                       # Number of stores executed
system.cpu0.iew.exec_rate                    0.130273                       # Inst execution rate
system.cpu0.iew.wb_sent                       3916787                       # cumulative count of insts sent to commit
system.cpu0.iew.wb_count                      3903258                       # cumulative count of insts written-back
system.cpu0.iew.wb_producers                  2787966                       # num instructions producing a value
system.cpu0.iew.wb_consumers                  4562542                       # num instructions consuming a value
system.cpu0.iew.wb_rate                      0.127830                       # insts written-back per cycle
system.cpu0.iew.wb_fanout                    0.611055                       # average fanout of values written-back
system.cpu0.commit.commitSquashedInsts        3180353                       # The number of squashed insts skipped by commit
system.cpu0.commit.branchMispredicts            49858                       # The number of times a branch was mispredicted
system.cpu0.commit.committed_per_cycle::samples     30046125                       # Number of insts commited each cycle
system.cpu0.commit.committed_per_cycle::mean     0.076338                       # Number of insts commited each cycle
system.cpu0.commit.committed_per_cycle::stdev     0.500901                       # Number of insts commited each cycle
system.cpu0.commit.committed_per_cycle::underflows            0      0.00%      0.00% # Number of insts commited each cycle
system.cpu0.commit.committed_per_cycle::0     29027050     96.61%     96.61% # Number of insts commited each cycle
system.cpu0.commit.committed_per_cycle::1       468381      1.56%     98.17% # Number of insts commited each cycle
system.cpu0.commit.committed_per_cycle::2       121989      0.41%     98.57% # Number of insts commited each cycle
system.cpu0.commit.committed_per_cycle::3       319392      1.06%     99.64% # Number of insts commited each cycle
system.cpu0.commit.committed_per_cycle::4        42959      0.14%     99.78% # Number of insts commited each cycle
system.cpu0.commit.committed_per_cycle::5        21998      0.07%     99.85% # Number of insts commited each cycle
system.cpu0.commit.committed_per_cycle::6         5043      0.02%     99.87% # Number of insts commited each cycle
system.cpu0.commit.committed_per_cycle::7         3467      0.01%     99.88% # Number of insts commited each cycle
system.cpu0.commit.committed_per_cycle::8        35846      0.12%    100.00% # Number of insts commited each cycle
system.cpu0.commit.committed_per_cycle::overflows            0      0.00%    100.00% # Number of insts commited each cycle
system.cpu0.commit.committed_per_cycle::min_value            0                       # Number of insts commited each cycle
system.cpu0.commit.committed_per_cycle::max_value            8                       # Number of insts commited each cycle
system.cpu0.commit.committed_per_cycle::total     30046125                       # Number of insts commited each cycle
system.cpu0.commit.committedInsts             1149240                       # Number of instructions committed
system.cpu0.commit.committedOps               2293656                       # Number of ops (including micro ops) committed
system.cpu0.commit.swp_count                        0                       # Number of s/w prefetches committed
system.cpu0.commit.refs                        449593                       # Number of memory references committed
system.cpu0.commit.loads                       424382                       # Number of loads committed
system.cpu0.commit.membars                          0                       # Number of memory barriers committed
system.cpu0.commit.branches                    410299                       # Number of branches committed
system.cpu0.commit.vec_insts                        0                       # Number of committed Vector instructions.
system.cpu0.commit.fp_insts                     10112                       # Number of committed floating point instructions.
system.cpu0.commit.int_insts                  2283436                       # Number of committed integer instructions.
system.cpu0.commit.function_calls                4450                       # Number of function calls committed.
system.cpu0.commit.op_class_0::No_OpClass         3052      0.13%      0.13% # Class of committed instruction
system.cpu0.commit.op_class_0::IntAlu         1824791     79.56%     79.69% # Class of committed instruction
system.cpu0.commit.op_class_0::IntMult            178      0.01%     79.70% # Class of committed instruction
system.cpu0.commit.op_class_0::IntDiv            7402      0.32%     80.02% # Class of committed instruction
system.cpu0.commit.op_class_0::FloatAdd          8640      0.38%     80.40% # Class of committed instruction
system.cpu0.commit.op_class_0::FloatCmp             0      0.00%     80.40% # Class of committed instruction
system.cpu0.commit.op_class_0::FloatCvt             0      0.00%     80.40% # Class of committed instruction
system.cpu0.commit.op_class_0::FloatMult            0      0.00%     80.40% # Class of committed instruction
system.cpu0.commit.op_class_0::FloatMultAcc            0      0.00%     80.40% # Class of committed instruction
system.cpu0.commit.op_class_0::FloatDiv             0      0.00%     80.40% # Class of committed instruction
system.cpu0.commit.op_class_0::FloatMisc            0      0.00%     80.40% # Class of committed instruction
system.cpu0.commit.op_class_0::FloatSqrt            0      0.00%     80.40% # Class of committed instruction
system.cpu0.commit.op_class_0::SimdAdd              0      0.00%     80.40% # Class of committed instruction
system.cpu0.commit.op_class_0::SimdAddAcc            0      0.00%     80.40% # Class of committed instruction
system.cpu0.commit.op_class_0::SimdAlu              0      0.00%     80.40% # Class of committed instruction
system.cpu0.commit.op_class_0::SimdCmp              0      0.00%     80.40% # Class of committed instruction
system.cpu0.commit.op_class_0::SimdCvt              0      0.00%     80.40% # Class of committed instruction
system.cpu0.commit.op_class_0::SimdMisc             0      0.00%     80.40% # Class of committed instruction
system.cpu0.commit.op_class_0::SimdMult             0      0.00%     80.40% # Class of committed instruction
system.cpu0.commit.op_class_0::SimdMultAcc            0      0.00%     80.40% # Class of committed instruction
system.cpu0.commit.op_class_0::SimdShift            0      0.00%     80.40% # Class of committed instruction
system.cpu0.commit.op_class_0::SimdShiftAcc            0      0.00%     80.40% # Class of committed instruction
system.cpu0.commit.op_class_0::SimdSqrt             0      0.00%     80.40% # Class of committed instruction
system.cpu0.commit.op_class_0::SimdFloatAdd            0      0.00%     80.40% # Class of committed instruction
system.cpu0.commit.op_class_0::SimdFloatAlu            0      0.00%     80.40% # Class of committed instruction
system.cpu0.commit.op_class_0::SimdFloatCmp            0      0.00%     80.40% # Class of committed instruction
system.cpu0.commit.op_class_0::SimdFloatCvt            0      0.00%     80.40% # Class of committed instruction
system.cpu0.commit.op_class_0::SimdFloatDiv            0      0.00%     80.40% # Class of committed instruction
system.cpu0.commit.op_class_0::SimdFloatMisc            0      0.00%     80.40% # Class of committed instruction
system.cpu0.commit.op_class_0::SimdFloatMult            0      0.00%     80.40% # Class of committed instruction
system.cpu0.commit.op_class_0::SimdFloatMultAcc            0      0.00%     80.40% # Class of committed instruction
system.cpu0.commit.op_class_0::SimdFloatSqrt            0      0.00%     80.40% # Class of committed instruction
system.cpu0.commit.op_class_0::MemRead         422910     18.44%     98.84% # Class of committed instruction
system.cpu0.commit.op_class_0::MemWrite         25211      1.10%     99.94% # Class of committed instruction
system.cpu0.commit.op_class_0::FloatMemRead         1472      0.06%    100.00% # Class of committed instruction
system.cpu0.commit.op_class_0::FloatMemWrite            0      0.00%    100.00% # Class of committed instruction
system.cpu0.commit.op_class_0::IprAccess            0      0.00%    100.00% # Class of committed instruction
system.cpu0.commit.op_class_0::InstPrefetch            0      0.00%    100.00% # Class of committed instruction
system.cpu0.commit.op_class_0::total          2293656                       # Class of committed instruction
system.cpu0.commit.bw_lim_events                35846                       # number cycles where commit BW limit reached
system.cpu0.rob.rob_reads                    35484288                       # The number of ROB reads
system.cpu0.rob.rob_writes                   11399839                       # The number of ROB writes
system.cpu0.timesIdled                            285                       # Number of times that the entire CPU went into an idle state and unscheduled itself
system.cpu0.idleCycles                          38194                       # Total number of cycles that the CPU has spent unscheduled due to idling
system.cpu0.committedInsts                    1149240                       # Number of Instructions Simulated
system.cpu0.committedOps                      2293656                       # Number of Ops (including micro ops) Simulated
system.cpu0.cpi                             26.569462                       # CPI: Cycles Per Instruction
system.cpu0.cpi_total                       26.569462                       # CPI: Total CPI of All Threads
system.cpu0.ipc                              0.037637                       # IPC: Instructions Per Cycle
system.cpu0.ipc_total                        0.037637                       # IPC: Total IPC of All Threads
system.cpu0.int_regfile_reads                 4125544                       # number of integer regfile reads
system.cpu0.int_regfile_writes                3360838                       # number of integer regfile writes
system.cpu0.fp_regfile_reads                    23219                       # number of floating regfile reads
system.cpu0.fp_regfile_writes                   11564                       # number of floating regfile writes
system.cpu0.cc_regfile_reads                  2659908                       # number of cc regfile reads
system.cpu0.cc_regfile_writes                 1139360                       # number of cc regfile writes
system.cpu0.misc_regfile_reads                2087422                       # number of misc regfile reads
system.cpu0.dcache.tags.pwrStateResidencyTicks::UNDEFINED  15267344125                       # Cumulative time (in ticks) in various power states
system.cpu0.dcache.tags.replacements           225435                       # number of replacements
system.cpu0.dcache.tags.tagsinuse                1024                       # Cycle average of tags in use
system.cpu0.dcache.tags.total_refs             236222                       # Total number of references to valid blocks.
system.cpu0.dcache.tags.sampled_refs           225435                       # Sample count of references to valid blocks.
system.cpu0.dcache.tags.avg_refs             1.047850                       # Average number of references to valid blocks.
system.cpu0.dcache.tags.warmup_cycle                0                       # Cycle when the warmup percentage was hit.
system.cpu0.dcache.tags.occ_blocks::cpu0.data         1024                       # Average occupied blocks per requestor
system.cpu0.dcache.tags.occ_percent::cpu0.data            1                       # Average percentage of cache occupancy
system.cpu0.dcache.tags.occ_percent::total            1                       # Average percentage of cache occupancy
system.cpu0.dcache.tags.occ_task_id_blocks::1024         1024                       # Occupied blocks per task id
system.cpu0.dcache.tags.age_task_id_blocks_1024::0          128                       # Occupied blocks per task id
system.cpu0.dcache.tags.age_task_id_blocks_1024::1          805                       # Occupied blocks per task id
system.cpu0.dcache.tags.age_task_id_blocks_1024::2           91                       # Occupied blocks per task id
system.cpu0.dcache.tags.occ_task_id_percent::1024            1                       # Percentage of cache occupancy per task id
system.cpu0.dcache.tags.tag_accesses          2744379                       # Number of tag accesses
system.cpu0.dcache.tags.data_accesses         2744379                       # Number of data accesses
system.cpu0.dcache.pwrStateResidencyTicks::UNDEFINED  15267344125                       # Cumulative time (in ticks) in various power states
system.cpu0.dcache.ReadReq_hits::cpu0.data       211945                       # number of ReadReq hits
system.cpu0.dcache.ReadReq_hits::total         211945                       # number of ReadReq hits
system.cpu0.dcache.WriteReq_hits::cpu0.data        24335                       # number of WriteReq hits
system.cpu0.dcache.WriteReq_hits::total         24335                       # number of WriteReq hits
system.cpu0.dcache.demand_hits::cpu0.data       236280                       # number of demand (read+write) hits
system.cpu0.dcache.demand_hits::total          236280                       # number of demand (read+write) hits
system.cpu0.dcache.overall_hits::cpu0.data       236280                       # number of overall hits
system.cpu0.dcache.overall_hits::total         236280                       # number of overall hits
system.cpu0.dcache.ReadReq_misses::cpu0.data       392580                       # number of ReadReq misses
system.cpu0.dcache.ReadReq_misses::total       392580                       # number of ReadReq misses
system.cpu0.dcache.WriteReq_misses::cpu0.data          876                       # number of WriteReq misses
system.cpu0.dcache.WriteReq_misses::total          876                       # number of WriteReq misses
system.cpu0.dcache.demand_misses::cpu0.data       393456                       # number of demand (read+write) misses
system.cpu0.dcache.demand_misses::total        393456                       # number of demand (read+write) misses
system.cpu0.dcache.overall_misses::cpu0.data       393456                       # number of overall misses
system.cpu0.dcache.overall_misses::total       393456                       # number of overall misses
system.cpu0.dcache.ReadReq_miss_latency::cpu0.data  33541015500                       # number of ReadReq miss cycles
system.cpu0.dcache.ReadReq_miss_latency::total  33541015500                       # number of ReadReq miss cycles
system.cpu0.dcache.WriteReq_miss_latency::cpu0.data     34143000                       # number of WriteReq miss cycles
system.cpu0.dcache.WriteReq_miss_latency::total     34143000                       # number of WriteReq miss cycles
system.cpu0.dcache.demand_miss_latency::cpu0.data  33575158500                       # number of demand (read+write) miss cycles
system.cpu0.dcache.demand_miss_latency::total  33575158500                       # number of demand (read+write) miss cycles
system.cpu0.dcache.overall_miss_latency::cpu0.data  33575158500                       # number of overall miss cycles
system.cpu0.dcache.overall_miss_latency::total  33575158500                       # number of overall miss cycles
system.cpu0.dcache.ReadReq_accesses::cpu0.data       604525                       # number of ReadReq accesses(hits+misses)
system.cpu0.dcache.ReadReq_accesses::total       604525                       # number of ReadReq accesses(hits+misses)
system.cpu0.dcache.WriteReq_accesses::cpu0.data        25211                       # number of WriteReq accesses(hits+misses)
system.cpu0.dcache.WriteReq_accesses::total        25211                       # number of WriteReq accesses(hits+misses)
system.cpu0.dcache.demand_accesses::cpu0.data       629736                       # number of demand (read+write) accesses
system.cpu0.dcache.demand_accesses::total       629736                       # number of demand (read+write) accesses
system.cpu0.dcache.overall_accesses::cpu0.data       629736                       # number of overall (read+write) accesses
system.cpu0.dcache.overall_accesses::total       629736                       # number of overall (read+write) accesses
system.cpu0.dcache.ReadReq_miss_rate::cpu0.data     0.649402                       # miss rate for ReadReq accesses
system.cpu0.dcache.ReadReq_miss_rate::total     0.649402                       # miss rate for ReadReq accesses
system.cpu0.dcache.WriteReq_miss_rate::cpu0.data     0.034747                       # miss rate for WriteReq accesses
system.cpu0.dcache.WriteReq_miss_rate::total     0.034747                       # miss rate for WriteReq accesses
system.cpu0.dcache.demand_miss_rate::cpu0.data     0.624795                       # miss rate for demand accesses
system.cpu0.dcache.demand_miss_rate::total     0.624795                       # miss rate for demand accesses
system.cpu0.dcache.overall_miss_rate::cpu0.data     0.624795                       # miss rate for overall accesses
system.cpu0.dcache.overall_miss_rate::total     0.624795                       # miss rate for overall accesses
system.cpu0.dcache.ReadReq_avg_miss_latency::cpu0.data 85437.402568                       # average ReadReq miss latency
system.cpu0.dcache.ReadReq_avg_miss_latency::total 85437.402568                       # average ReadReq miss latency
system.cpu0.dcache.WriteReq_avg_miss_latency::cpu0.data 38976.027397                       # average WriteReq miss latency
system.cpu0.dcache.WriteReq_avg_miss_latency::total 38976.027397                       # average WriteReq miss latency
system.cpu0.dcache.demand_avg_miss_latency::cpu0.data 85333.959833                       # average overall miss latency
system.cpu0.dcache.demand_avg_miss_latency::total 85333.959833                       # average overall miss latency
system.cpu0.dcache.overall_avg_miss_latency::cpu0.data 85333.959833                       # average overall miss latency
[...]
system.l2.WritebackDirty_hits::total             2164                       # number of WritebackDirty hits
system.l2.ReadExReq_hits::cpu0.data               631                       # number of ReadExReq hits
system.l2.ReadExReq_hits::total                   631                       # number of ReadExReq hits
system.l2.ReadSharedReq_hits::cpu0.data         30370                       # number of ReadSharedReq hits
system.l2.ReadSharedReq_hits::total             30370                       # number of ReadSharedReq hits
system.l2.demand_hits::cpu0.data                31001                       # number of demand (read+write) hits
system.l2.demand_hits::total                    31001                       # number of demand (read+write) hits
system.l2.overall_hits::cpu0.data               31001                       # number of overall hits
system.l2.overall_hits::total                   31001                       # number of overall hits
system.l2.ReadExReq_misses::cpu0.data             238                       # number of ReadExReq misses
system.l2.ReadExReq_misses::total                 238                       # number of ReadExReq misses
system.l2.ReadSharedReq_misses::cpu0.data       194196                       # number of ReadSharedReq misses
system.l2.ReadSharedReq_misses::total          194196                       # number of ReadSharedReq misses
system.l2.demand_misses::cpu0.data             194434                       # number of demand (read+write) misses
system.l2.demand_misses::total                 194434                       # number of demand (read+write) misses
system.l2.overall_misses::cpu0.data            194434                       # number of overall misses
system.l2.overall_misses::total                194434                       # number of overall misses
system.l2.ReadExReq_miss_latency::cpu0.data     24398000                       # number of ReadExReq miss cycles
system.l2.ReadExReq_miss_latency::total      24398000                       # number of ReadExReq miss cycles
system.l2.ReadSharedReq_miss_latency::cpu0.data  18416231000                       # number of ReadSharedReq miss cycles
system.l2.ReadSharedReq_miss_latency::total  18416231000                       # number of ReadSharedReq miss cycles
system.l2.demand_miss_latency::cpu0.data  18440629000                       # number of demand (read+write) miss cycles
system.l2.demand_miss_latency::total      18440629000                       # number of demand (read+write) miss cycles
system.l2.overall_miss_latency::cpu0.data  18440629000                       # number of overall miss cycles
system.l2.overall_miss_latency::total     18440629000                       # number of overall miss cycles
system.l2.WritebackDirty_accesses::writebacks         2164                       # number of WritebackDirty accesses(hits+misses)
system.l2.WritebackDirty_accesses::total         2164                       # number of WritebackDirty accesses(hits+misses)
system.l2.ReadExReq_accesses::cpu0.data           869                       # number of ReadExReq accesses(hits+misses)
system.l2.ReadExReq_accesses::total               869                       # number of ReadExReq accesses(hits+misses)
system.l2.ReadSharedReq_accesses::cpu0.data       224566                       # number of ReadSharedReq accesses(hits+misses)
system.l2.ReadSharedReq_accesses::total        224566                       # number of ReadSharedReq accesses(hits+misses)
system.l2.demand_accesses::cpu0.data           225435                       # number of demand (read+write) accesses
system.l2.demand_accesses::total               225435                       # number of demand (read+write) accesses
system.l2.overall_accesses::cpu0.data          225435                       # number of overall (read+write) accesses
system.l2.overall_accesses::total              225435                       # number of overall (read+write) accesses
system.l2.ReadExReq_miss_rate::cpu0.data     0.273878                       # miss rate for ReadExReq accesses
system.l2.ReadExReq_miss_rate::total         0.273878                       # miss rate for ReadExReq accesses
system.l2.ReadSharedReq_miss_rate::cpu0.data     0.864761                       # miss rate for ReadSharedReq accesses
system.l2.ReadSharedReq_miss_rate::total     0.864761                       # miss rate for ReadSharedReq accesses
system.l2.demand_miss_rate::cpu0.data        0.862484                       # miss rate for demand accesses
system.l2.demand_miss_rate::total            0.862484                       # miss rate for demand accesses
system.l2.overall_miss_rate::cpu0.data       0.862484                       # miss rate for overall accesses
system.l2.overall_miss_rate::total           0.862484                       # miss rate for overall accesses
system.l2.ReadExReq_avg_miss_latency::cpu0.data 102512.605042                       # average ReadExReq miss latency
system.l2.ReadExReq_avg_miss_latency::total 102512.605042                       # average ReadExReq miss latency
system.l2.ReadSharedReq_avg_miss_latency::cpu0.data 94833.214896                       # average ReadSharedReq miss latency
system.l2.ReadSharedReq_avg_miss_latency::total 94833.214896                       # average ReadSharedReq miss latency
system.l2.demand_avg_miss_latency::cpu0.data 94842.614975                       # average overall miss latency
system.l2.demand_avg_miss_latency::total 94842.614975                       # average overall miss latency
system.l2.overall_avg_miss_latency::cpu0.data 94842.614975                       # average overall miss latency
system.l2.overall_avg_miss_latency::total 94842.614975                       # average overall miss latency
system.l2.blocked_cycles::no_mshrs                  0                       # number of cycles access was blocked
system.l2.blocked_cycles::no_targets                0                       # number of cycles access was blocked
system.l2.blocked::no_mshrs                         0                       # number of cycles access was blocked
system.l2.blocked::no_targets                       0                       # number of cycles access was blocked
system.l2.avg_blocked_cycles::no_mshrs            nan                       # average number of cycles each access was blocked
system.l2.avg_blocked_cycles::no_targets          nan                       # average number of cycles each access was blocked
system.l2.writebacks::writebacks                  386                       # number of writebacks
system.l2.writebacks::total                       386                       # number of writebacks
system.l2.CleanEvict_mshr_misses::writebacks            1                       # number of CleanEvict MSHR misses
system.l2.CleanEvict_mshr_misses::total             1                       # number of CleanEvict MSHR misses
system.l2.ReadExReq_mshr_misses::cpu0.data          238                       # number of ReadExReq MSHR misses
system.l2.ReadExReq_mshr_misses::total            238                       # number of ReadExReq MSHR misses
system.l2.ReadSharedReq_mshr_misses::cpu0.data       194196                       # number of ReadSharedReq MSHR misses
system.l2.ReadSharedReq_mshr_misses::total       194196                       # number of ReadSharedReq MSHR misses
system.l2.demand_mshr_misses::cpu0.data        194434                       # number of demand (read+write) MSHR misses
system.l2.demand_mshr_misses::total            194434                       # number of demand (read+write) MSHR misses
system.l2.overall_mshr_misses::cpu0.data       194434                       # number of overall MSHR misses
system.l2.overall_mshr_misses::total           194434                       # number of overall MSHR misses
system.l2.ReadExReq_mshr_miss_latency::cpu0.data     22018000                       # number of ReadExReq MSHR miss cycles
system.l2.ReadExReq_mshr_miss_latency::total     22018000                       # number of ReadExReq MSHR miss cycles
system.l2.ReadSharedReq_mshr_miss_latency::cpu0.data  16474281000                       # number of ReadSharedReq MSHR miss cycles
system.l2.ReadSharedReq_mshr_miss_latency::total  16474281000                       # number of ReadSharedReq MSHR miss cycles
system.l2.demand_mshr_miss_latency::cpu0.data  16496299000                       # number of demand (read+write) MSHR miss cycles
system.l2.demand_mshr_miss_latency::total  16496299000                       # number of demand (read+write) MSHR miss cycles
system.l2.overall_mshr_miss_latency::cpu0.data  16496299000                       # number of overall MSHR miss cycles
system.l2.overall_mshr_miss_latency::total  16496299000                       # number of overall MSHR miss cycles
system.l2.CleanEvict_mshr_miss_rate::writebacks          inf                       # mshr miss rate for CleanEvict accesses
system.l2.CleanEvict_mshr_miss_rate::total          inf                       # mshr miss rate for CleanEvict accesses
system.l2.ReadExReq_mshr_miss_rate::cpu0.data     0.273878                       # mshr miss rate for ReadExReq accesses
system.l2.ReadExReq_mshr_miss_rate::total     0.273878                       # mshr miss rate for ReadExReq accesses
system.l2.ReadSharedReq_mshr_miss_rate::cpu0.data     0.864761                       # mshr miss rate for ReadSharedReq accesses
system.l2.ReadSharedReq_mshr_miss_rate::total     0.864761                       # mshr miss rate for ReadSharedReq accesses
system.l2.demand_mshr_miss_rate::cpu0.data     0.862484                       # mshr miss rate for demand accesses
system.l2.demand_mshr_miss_rate::total       0.862484                       # mshr miss rate for demand accesses
system.l2.overall_mshr_miss_rate::cpu0.data     0.862484                       # mshr miss rate for overall accesses
system.l2.overall_mshr_miss_rate::total      0.862484                       # mshr miss rate for overall accesses
system.l2.ReadExReq_avg_mshr_miss_latency::cpu0.data 92512.605042                       # average ReadExReq mshr miss latency
system.l2.ReadExReq_avg_mshr_miss_latency::total 92512.605042                       # average ReadExReq mshr miss latency
system.l2.ReadSharedReq_avg_mshr_miss_latency::cpu0.data 84833.266391                       # average ReadSharedReq mshr miss latency
system.l2.ReadSharedReq_avg_mshr_miss_latency::total 84833.266391                       # average ReadSharedReq mshr miss latency
system.l2.demand_avg_mshr_miss_latency::cpu0.data 84842.666406                       # average overall mshr miss latency
system.l2.demand_avg_mshr_miss_latency::total 84842.666406                       # average overall mshr miss latency
system.l2.overall_avg_mshr_miss_latency::cpu0.data 84842.666406                       # average overall mshr miss latency
system.l2.overall_avg_mshr_miss_latency::total 84842.666406                       # average overall mshr miss latency
system.membus.snoop_filter.tot_requests        388862                       # Total number of requests made to the snoop filter.
system.membus.snoop_filter.hit_single_requests       194434                       # Number of requests hitting in the snoop filter with a single holder of the requested data.
system.membus.snoop_filter.hit_multi_requests            0                       # Number of requests hitting in the snoop filter with multiple (>1) holders of the requested data.
system.membus.snoop_filter.tot_snoops               0                       # Total number of snoops made to the snoop filter.
system.membus.snoop_filter.hit_single_snoops            0                       # Number of snoops hitting in the snoop filter with a single holder of the requested data.
system.membus.snoop_filter.hit_multi_snoops            0                       # Number of snoops hitting in the snoop filter with multiple (>1) holders of the requested data.
system.membus.pwrStateResidencyTicks::UNDEFINED  15267344125                       # Cumulative time (in ticks) in various power states
system.membus.trans_dist::ReadResp             194195                       # Transaction distribution
system.membus.trans_dist::WritebackDirty          386                       # Transaction distribution
system.membus.trans_dist::CleanEvict           194042                       # Transaction distribution
system.membus.trans_dist::ReadExReq               238                       # Transaction distribution
system.membus.trans_dist::ReadExResp              238                       # Transaction distribution
system.membus.trans_dist::ReadSharedReq        194196                       # Transaction distribution
system.membus.pkt_count_system.l2.mem_side::system.mem_ctrls.port       583295                       # Packet count per connected master and slave (bytes)
system.membus.pkt_count_system.l2.mem_side::total       583295                       # Packet count per connected master and slave (bytes)
system.membus.pkt_count::total                 583295                       # Packet count per connected master and slave (bytes)
system.membus.pkt_size_system.l2.mem_side::system.mem_ctrls.port     12468416                       # Cumulative packet size per connected master and slave (bytes)
system.membus.pkt_size_system.l2.mem_side::total     12468416                       # Cumulative packet size per connected master and slave (bytes)
system.membus.pkt_size::total                12468416                       # Cumulative packet size per connected master and slave (bytes)
system.membus.snoops                                0                       # Total snoops (count)
system.membus.snoopTraffic                          0                       # Total snoop traffic (bytes)
system.membus.snoop_fanout::samples            194434                       # Request fanout histogram
system.membus.snoop_fanout::mean                    0                       # Request fanout histogram
system.membus.snoop_fanout::stdev                   0                       # Request fanout histogram
system.membus.snoop_fanout::underflows              0      0.00%      0.00% # Request fanout histogram
system.membus.snoop_fanout::0                  194434    100.00%    100.00% # Request fanout histogram
system.membus.snoop_fanout::1                       0      0.00%    100.00% # Request fanout histogram
system.membus.snoop_fanout::overflows               0      0.00%    100.00% # Request fanout histogram
system.membus.snoop_fanout::min_value               0                       # Request fanout histogram
system.membus.snoop_fanout::max_value               0                       # Request fanout histogram
system.membus.snoop_fanout::total              194434                       # Request fanout histogram
system.membus.reqLayer4.occupancy           460549500                       # Layer occupancy (ticks)
system.membus.reqLayer4.utilization               3.0                       # Layer utilization (%)
system.membus.respLayer1.occupancy         1051055500                       # Layer occupancy (ticks)
system.membus.respLayer1.utilization              6.9                       # Layer utilization (%)
system.tol2bus.snoop_filter.tot_requests       450870                       # Total number of requests made to the snoop filter.
system.tol2bus.snoop_filter.hit_single_requests       225438                       # Number of requests hitting in the snoop filter with a single holder of the requested data.
system.tol2bus.snoop_filter.hit_multi_requests          606                       # Number of requests hitting in the snoop filter with multiple (>1) holders of the requested data.
system.tol2bus.snoop_filter.tot_snoops             11                       # Total number of snoops made to the snoop filter.
system.tol2bus.snoop_filter.hit_single_snoops           11                       # Number of snoops hitting in the snoop filter with a single holder of the requested data.
system.tol2bus.snoop_filter.hit_multi_snoops            0                       # Number of snoops hitting in the snoop filter with multiple (>1) holders of the requested data.
system.tol2bus.pwrStateResidencyTicks::UNDEFINED  15267344125                       # Cumulative time (in ticks) in various power states
system.tol2bus.trans_dist::ReadResp            224566                       # Transaction distribution
system.tol2bus.trans_dist::WritebackDirty         2550                       # Transaction distribution
system.tol2bus.trans_dist::CleanEvict          417322                       # Transaction distribution
system.tol2bus.trans_dist::ReadExReq              869                       # Transaction distribution
system.tol2bus.trans_dist::ReadExResp             869                       # Transaction distribution
system.tol2bus.trans_dist::ReadSharedReq       224566                       # Transaction distribution
system.tol2bus.pkt_count_system.cpu0.dcache.mem_side::system.l2.cpu_side       676305                       # Packet count per connected master and slave (bytes)
system.tol2bus.pkt_count::total                676305                       # Packet count per connected master and slave (bytes)
system.tol2bus.pkt_size_system.cpu0.dcache.mem_side::system.l2.cpu_side     14566336                       # Cumulative packet size per connected master and slave (bytes)
system.tol2bus.pkt_size::total               14566336                       # Cumulative packet size per connected master and slave (bytes)
system.tol2bus.snoops                          194437                       # Total snoops (count)
system.tol2bus.snoopTraffic                     24704                       # Total snoop traffic (bytes)
system.tol2bus.snoop_fanout::samples           419872                       # Request fanout histogram
system.tol2bus.snoop_fanout::mean            0.001477                       # Request fanout histogram
system.tol2bus.snoop_fanout::stdev           0.038399                       # Request fanout histogram
system.tol2bus.snoop_fanout::underflows             0      0.00%      0.00% # Request fanout histogram
system.tol2bus.snoop_fanout::0                 419252     99.85%     99.85% # Request fanout histogram
system.tol2bus.snoop_fanout::1                    620      0.15%    100.00% # Request fanout histogram
system.tol2bus.snoop_fanout::2                      0      0.00%    100.00% # Request fanout histogram
system.tol2bus.snoop_fanout::3                      0      0.00%    100.00% # Request fanout histogram
system.tol2bus.snoop_fanout::4                      0      0.00%    100.00% # Request fanout histogram
system.tol2bus.snoop_fanout::5                      0      0.00%    100.00% # Request fanout histogram
system.tol2bus.snoop_fanout::6                      0      0.00%    100.00% # Request fanout histogram
system.tol2bus.snoop_fanout::7                      0      0.00%    100.00% # Request fanout histogram
system.tol2bus.snoop_fanout::8                      0      0.00%    100.00% # Request fanout histogram
system.tol2bus.snoop_fanout::overflows              0      0.00%    100.00% # Request fanout histogram
system.tol2bus.snoop_fanout::min_value              0                       # Request fanout histogram
system.tol2bus.snoop_fanout::max_value              1                       # Request fanout histogram
system.tol2bus.snoop_fanout::total             419872                       # Request fanout histogram
system.tol2bus.reqLayer0.occupancy          227599000                       # Layer occupancy (ticks)
system.tol2bus.reqLayer0.utilization              1.5                       # Layer utilization (%)
system.tol2bus.respLayer1.occupancy         338152500                       # Layer occupancy (ticks)
system.tol2bus.respLayer1.utilization             2.2                       # Layer utilization (%)

---------- End Simulation Statistics   ----------
