
---------- Begin Simulation Statistics ----------
sim_seconds                                  0.015267                       # Number of seconds simulated
sim_ticks                                 15267344125                       # Number of ticks simulated
final_tick                               8488643333500                       # Number of ticks from beginning of simulation (restored from checkpoints and never reset)
sim_freq                                 1000000000000                       # Frequency of simulated ticks
host_inst_rate                               80914565                       # Simulator instruction rate (inst/s)
host_op_rate                                150684095                       # Simulator op (including micro ops) rate (op/s)
host_tick_rate                              207233938                       # Simulator tick rate (ticks/s)
host_mem_usage                                1248940                       # Number of bytes of host memory used
host_seconds                                    73.67                       # Real time elapsed on the host
sim_insts                                  5961137013                       # Number of instructions simulated
sim_ops                                   11101199992                       # Number of ops (including micro ops) simulated
system.voltage_domain.voltage                       1                       # Voltage in Volts
system.clk_domain.clock                          1000                       # Clock period in ticks
system.mem_ctrls.pwrStateResidencyTicks::UNDEFINED  15267344125                       # Cumulative time (in ticks) in various power states
system.mem_ctrls.bytes_read::cpu0.inst            128                       # Number of bytes read from this memory
system.mem_ctrls.bytes_read::cpu0.data       12669760                       # Number of bytes read from this memory
system.mem_ctrls.bytes_read::total           12669888                       # Number of bytes read from this memory
system.mem_ctrls.bytes_inst_read::cpu0.inst          128                       # Number of instructions bytes read from this memory
system.mem_ctrls.bytes_inst_read::total           128                       # Number of instructions bytes read from this memory
system.mem_ctrls.bytes_written::writebacks        20928                       # Number of bytes written to this memory
system.mem_ctrls.bytes_written::total           20928                       # Number of bytes written to this memory
system.mem_ctrls.num_reads::cpu0.inst               2                       # Number of read requests responded to by this memory
system.mem_ctrls.num_reads::cpu0.data          197965                       # Number of read requests responded to by this memory
system.mem_ctrls.num_reads::total              197967                       # Number of read requests responded to by this memory
system.mem_ctrls.num_writes::writebacks           327                       # Number of write requests responded to by this memory
system.mem_ctrls.num_writes::total                327                       # Number of write requests responded to by this memory
system.mem_ctrls.bw_read::cpu0.inst              8384                       # Total read bandwidth from this memory (bytes/s)
system.mem_ctrls.bw_read::cpu0.data         829860118                       # Total read bandwidth from this memory (bytes/s)
system.mem_ctrls.bw_read::total             829868502                       # Total read bandwidth from this memory (bytes/s)
system.mem_ctrls.bw_inst_read::cpu0.inst         8384                       # Instruction read bandwidth from this memory (bytes/s)
system.mem_ctrls.bw_inst_read::total             8384                       # Instruction read bandwidth from this memory (bytes/s)
system.mem_ctrls.bw_write::writebacks         1370769                       # Write bandwidth from this memory (bytes/s)
system.mem_ctrls.bw_write::total              1370769                       # Write bandwidth from this memory (bytes/s)
system.mem_ctrls.bw_total::writebacks         1370769                       # Total bandwidth to/from this memory (bytes/s)
system.mem_ctrls.bw_total::cpu0.inst             8384                       # Total bandwidth to/from this memory (bytes/s)
system.mem_ctrls.bw_total::cpu0.data        829860118                       # Total bandwidth to/from this memory (bytes/s)
system.mem_ctrls.bw_total::total            831239271                       # Total bandwidth to/from this memory (bytes/s)
system.mem_ctrls.readReqs                      197967                       # Number of read requests accepted
system.mem_ctrls.writeReqs                        327                       # Number of write requests accepted
system.mem_ctrls.readBursts                    197967                       # Number of DRAM read bursts, including those serviced by the write queue
system.mem_ctrls.writeBursts                      327                       # Number of DRAM write bursts, including those merged in the write queue
system.mem_ctrls.bytesReadDRAM               12667008                       # Total number of bytes read from DRAM
system.mem_ctrls.bytesReadWrQ                    2880                       # Total number of bytes read from write queue
system.mem_ctrls.bytesWritten                   20480                       # Total number of bytes written to DRAM
system.mem_ctrls.bytesReadSys                12669888                       # Total read bytes from the system interface side
system.mem_ctrls.bytesWrittenSys                20928                       # Total written bytes from the system interface side
system.mem_ctrls.servicedByWrQ                     45                       # Number of DRAM read bursts serviced by the write queue
system.mem_ctrls.mergedWrBursts                     2                       # Number of DRAM write bursts merged with an existing one
system.mem_ctrls.neitherReadNorWriteReqs            0                       # Number of requests that are neither read nor write
system.mem_ctrls.perBankRdBursts::0             12310                       # Per bank write bursts
system.mem_ctrls.perBankRdBursts::1             12226                       # Per bank write bursts
system.mem_ctrls.perBankRdBursts::2             12153                       # Per bank write bursts
system.mem_ctrls.perBankRdBursts::3             12791                       # Per bank write bursts
system.mem_ctrls.perBankRdBursts::4             12795                       # Per bank write bursts
system.mem_ctrls.perBankRdBursts::5             12454                       # Per bank write bursts
system.mem_ctrls.perBankRdBursts::6             12626                       # Per bank write bursts
system.mem_ctrls.perBankRdBursts::7             12427                       # Per bank write bursts
system.mem_ctrls.perBankRdBursts::8             12239                       # Per bank write bursts
system.mem_ctrls.perBankRdBursts::9             12346                       # Per bank write bursts
system.mem_ctrls.perBankRdBursts::10            11976                       # Per bank write bursts
system.mem_ctrls.perBankRdBursts::11            12113                       # Per bank write bursts
system.mem_ctrls.perBankRdBursts::12            12479                       # Per bank write bursts
system.mem_ctrls.perBankRdBursts::13            12353                       # Per bank write bursts
system.mem_ctrls.perBankRdBursts::14            12435                       # Per bank write bursts
system.mem_ctrls.perBankRdBursts::15            12199                       # Per bank write bursts
system.mem_ctrls.perBankWrBursts::0                 0                       # Per bank write bursts
system.mem_ctrls.perBankWrBursts::1                 0                       # Per bank write bursts
system.mem_ctrls.perBankWrBursts::2                 0                       # Per bank write bursts
system.mem_ctrls.perBankWrBursts::3                99                       # Per bank write bursts
system.mem_ctrls.perBankWrBursts::4                11                       # Per bank write bursts
system.mem_ctrls.perBankWrBursts::5               115                       # Per bank write bursts
system.mem_ctrls.perBankWrBursts::6                66                       # Per bank write bursts
system.mem_ctrls.perBankWrBursts::7                 7                       # Per bank write bursts
system.mem_ctrls.perBankWrBursts::8                 1                       # Per bank write bursts
system.mem_ctrls.perBankWrBursts::9                 0                       # Per bank write bursts
system.mem_ctrls.perBankWrBursts::10                0                       # Per bank write bursts
system.mem_ctrls.perBankWrBursts::11                0                       # Per bank write bursts
system.mem_ctrls.perBankWrBursts::12                3                       # Per bank write bursts
system.mem_ctrls.perBankWrBursts::13               16                       # Per bank write bursts
system.mem_ctrls.perBankWrBursts::14                2                       # Per bank write bursts
system.mem_ctrls.perBankWrBursts::15                0                       # Per bank write bursts
system.mem_ctrls.numRdRetry                         0                       # Number of times read queue was full causing retry
system.mem_ctrls.numWrRetry                         0                       # Number of times write queue was full causing retry
system.mem_ctrls.totGap                   15267350000                       # Total gap between requests
system.mem_ctrls.readPktSize::0                     0                       # Read request sizes (log2)
system.mem_ctrls.readPktSize::1                     0                       # Read request sizes (log2)
system.mem_ctrls.readPktSize::2                     0                       # Read request sizes (log2)
system.mem_ctrls.readPktSize::3                     0                       # Read request sizes (log2)
system.mem_ctrls.readPktSize::4                     0                       # Read request sizes (log2)
system.mem_ctrls.readPktSize::5                     0                       # Read request sizes (log2)
system.mem_ctrls.readPktSize::6                197967                       # Read request sizes (log2)
system.mem_ctrls.writePktSize::0                    0                       # Write request sizes (log2)
system.mem_ctrls.writePktSize::1                    0                       # Write request sizes (log2)
system.mem_ctrls.writePktSize::2                    0                       # Write request sizes (log2)
system.mem_ctrls.writePktSize::3                    0                       # Write request sizes (log2)
system.mem_ctrls.writePktSize::4                    0                       # Write request sizes (log2)
system.mem_ctrls.writePktSize::5                    0                       # Write request sizes (log2)
system.mem_ctrls.writePktSize::6                  327                       # Write request sizes (log2)
system.mem_ctrls.rdQLenPdf::0                  149793                       # What read queue length does an incoming req see
system.mem_ctrls.rdQLenPdf::1                   45226                       # What read queue length does an incoming req see
system.mem_ctrls.rdQLenPdf::2                    2874                       # What read queue length does an incoming req see
system.mem_ctrls.rdQLenPdf::3                      28                       # What read queue length does an incoming req see
system.mem_ctrls.rdQLenPdf::4                       1                       # What read queue length does an incoming req see
system.mem_ctrls.rdQLenPdf::5                       0                       # What read queue length does an incoming req see
system.mem_ctrls.rdQLenPdf::6                       0                       # What read queue length does an incoming req see
system.mem_ctrls.rdQLenPdf::7                       0                       # What read queue length does an incoming req see
system.mem_ctrls.rdQLenPdf::8                       0                       # What read queue length does an incoming req see
system.mem_ctrls.rdQLenPdf::9                       0                       # What read queue length does an incoming req see
system.mem_ctrls.rdQLenPdf::10                      0                       # What read queue length does an incoming req see
system.mem_ctrls.rdQLenPdf::11                      0                       # What read queue length does an incoming req see
system.mem_ctrls.rdQLenPdf::12                      0                       # What read queue length does an incoming req see
system.mem_ctrls.rdQLenPdf::13                      0                       # What read queue length does an incoming req see
system.mem_ctrls.rdQLenPdf::14                      0                       # What read queue length does an incoming req see
system.mem_ctrls.rdQLenPdf::15                      0                       # What read queue length does an incoming req see
system.mem_ctrls.rdQLenPdf::16                      0                       # What read queue length does an incoming req see
system.mem_ctrls.rdQLenPdf::17                      0                       # What read queue length does an incoming req see
system.mem_ctrls.rdQLenPdf::18                      0                       # What read queue length does an incoming req see
system.mem_ctrls.rdQLenPdf::19                      0                       # What read queue length does an incoming req see
system.mem_ctrls.rdQLenPdf::20                      0                       # What read queue length does an incoming req see
system.mem_ctrls.rdQLenPdf::21                      0                       # What read queue length does an incoming req see
system.mem_ctrls.rdQLenPdf::22                      0                       # What read queue length does an incoming req see
system.mem_ctrls.rdQLenPdf::23                      0                       # What read queue length does an incoming req see
system.mem_ctrls.rdQLenPdf::24                      0                       # What read queue length does an incoming req see
system.mem_ctrls.rdQLenPdf::25                      0                       # What read queue length does an incoming req see
system.mem_ctrls.rdQLenPdf::26                      0                       # What read queue length does an incoming req see
system.mem_ctrls.rdQLenPdf::27                      0                       # What read queue length does an incoming req see
system.mem_ctrls.rdQLenPdf::28                      0                       # What read queue length does an incoming req see
system.mem_ctrls.rdQLenPdf::29                      0                       # What read queue length does an incoming req see
system.mem_ctrls.rdQLenPdf::30                      0                       # What read queue length does an incoming req see
system.mem_ctrls.rdQLenPdf::31                      0                       # What read queue length does an incoming req see
system.mem_ctrls.wrQLenPdf::0                       0                       # What write queue length does an incoming req see
system.mem_ctrls.wrQLenPdf::1                       0                       # What write queue length does an incoming req see
system.mem_ctrls.wrQLenPdf::2                       0                       # What write queue length does an incoming req see
system.mem_ctrls.wrQLenPdf::3                       0                       # What write queue length does an incoming req see
system.mem_ctrls.wrQLenPdf::4                       0                       # What write queue length does an incoming req see
system.mem_ctrls.wrQLenPdf::5                       0                       # What write queue length does an incoming req see
system.mem_ctrls.wrQLenPdf::6                       0                       # What write queue length does an incoming req see
system.mem_ctrls.wrQLenPdf::7                       0                       # What write queue length does an incoming req see
system.mem_ctrls.wrQLenPdf::8                       0                       # What write queue length does an incoming req see
system.mem_ctrls.wrQLenPdf::9                       0                       # What write queue length does an incoming req see
system.mem_ctrls.wrQLenPdf::10                      0                       # What write queue length does an incoming req see
system.mem_ctrls.wrQLenPdf::11                      0                       # What write queue length does an incoming req see
system.mem_ctrls.wrQLenPdf::12                      0                       # What write queue length does an incoming req see
system.mem_ctrls.wrQLenPdf::13                      0                       # What write queue length does an incoming req see
system.mem_ctrls.wrQLenPdf::14                      0                       # What write queue length does an incoming req see
system.mem_ctrls.wrQLenPdf::15                      0                       # What write queue length does an incoming req see
system.mem_ctrls.wrQLenPdf::16                      0                       # What write queue length does an incoming req see
system.mem_ctrls.wrQLenPdf::17                     20                       # What write queue length does an incoming req see
system.mem_ctrls.wrQLenPdf::18                     20                       # What write queue length does an incoming req see
system.mem_ctrls.wrQLenPdf::19                     20                       # What write queue length does an incoming req see
system.mem_ctrls.wrQLenPdf::20                     20                       # What write queue length does an incoming req see
system.mem_ctrls.wrQLenPdf::21                     20                       # What write queue length does an incoming req see
system.mem_ctrls.wrQLenPdf::22                     20                       # What write queue length does an incoming req see
system.mem_ctrls.wrQLenPdf::23                     20                       # What write queue length does an incoming req see
system.mem_ctrls.wrQLenPdf::24                     20                       # What write queue length does an incoming req see
system.mem_ctrls.wrQLenPdf::25                     20                       # What write queue length does an incoming req see
system.mem_ctrls.wrQLenPdf::26                     20                       # What write queue length does an incoming req see
system.mem_ctrls.wrQLenPdf::27                     21                       # What write queue length does an incoming req see
system.mem_ctrls.wrQLenPdf::28                     21                       # What write queue length does an incoming req see
system.mem_ctrls.wrQLenPdf::29                     21                       # What write queue length does an incoming req see
system.mem_ctrls.wrQLenPdf::30                     21                       # What write queue length does an incoming req see
system.mem_ctrls.wrQLenPdf::31                     21                       # What write queue length does an incoming req see
system.mem_ctrls.wrQLenPdf::32                     20                       # What write queue length does an incoming req see
system.mem_ctrls.wrQLenPdf::33                      0                       # What write queue length does an incoming req see
system.mem_ctrls.wrQLenPdf::34                      0                       # What write queue length does an incoming req see
system.mem_ctrls.wrQLenPdf::35                      0                       # What write queue length does an incoming req see
system.mem_ctrls.wrQLenPdf::36                      0                       # What write queue length does an incoming req see
system.mem_ctrls.wrQLenPdf::37                      0                       # What write queue length does an incoming req see
system.mem_ctrls.wrQLenPdf::38                      0                       # What write queue length does an incoming req see
system.mem_ctrls.wrQLenPdf::39                      0                       # What write queue length does an incoming req see
system.mem_ctrls.wrQLenPdf::40                      0                       # What write queue length does an incoming req see
system.mem_ctrls.wrQLenPdf::41                      0                       # What write queue length does an incoming req see
system.mem_ctrls.wrQLenPdf::42                      0                       # What write queue length does an incoming req see
system.mem_ctrls.wrQLenPdf::43                      0                       # What write queue length does an incoming req see
system.mem_ctrls.wrQLenPdf::44                      0                       # What write queue length does an incoming req see
system.mem_ctrls.wrQLenPdf::45                      0                       # What write queue length does an incoming req see
system.mem_ctrls.wrQLenPdf::46                      0                       # What write queue length does an incoming req see
system.mem_ctrls.wrQLenPdf::47                      0                       # What write queue length does an incoming req see
system.mem_ctrls.wrQLenPdf::48                      0                       # What write queue length does an incoming req see
system.mem_ctrls.wrQLenPdf::49                      0                       # What write queue length does an incoming req see
system.mem_ctrls.wrQLenPdf::50                      0                       # What write queue length does an incoming req see
system.mem_ctrls.wrQLenPdf::51                      0                       # What write queue length does an incoming req see
system.mem_ctrls.wrQLenPdf::52                      0                       # What write queue length does an incoming req see
system.mem_ctrls.wrQLenPdf::53                      0                       # What write queue length does an incoming req see
system.mem_ctrls.wrQLenPdf::54                      0                       # What write queue length does an incoming req see
system.mem_ctrls.wrQLenPdf::55                      0                       # What write queue length does an incoming req see
system.mem_ctrls.wrQLenPdf::56                      0                       # What write queue length does an incoming req see
system.mem_ctrls.wrQLenPdf::57                      0                       # What write queue length does an incoming req see
system.mem_ctrls.wrQLenPdf::58                      0                       # What write queue length does an incoming req see
system.mem_ctrls.wrQLenPdf::59                      0                       # What write queue length does an incoming req see
system.mem_ctrls.wrQLenPdf::60                      0                       # What write queue length does an incoming req see
system.mem_ctrls.wrQLenPdf::61                      0                       # What write queue length does an incoming req see
system.mem_ctrls.wrQLenPdf::62                      0                       # What write queue length does an incoming req see
system.mem_ctrls.wrQLenPdf::63                      0                       # What write queue length does an incoming req see
system.mem_ctrls.bytesPerActivate::samples        98124                       # Bytes accessed per row activation
system.mem_ctrls.bytesPerActivate::mean    129.300558                       # Bytes accessed per row activation
system.mem_ctrls.bytesPerActivate::gmean   111.139004                       # Bytes accessed per row activation
system.mem_ctrls.bytesPerActivate::stdev    77.297992                       # Bytes accessed per row activation
system.mem_ctrls.bytesPerActivate::0-127        41657     42.45%     42.45% # Bytes accessed per row activation
system.mem_ctrls.bytesPerActivate::128-255        45328     46.19%     88.65% # Bytes accessed per row activation
system.mem_ctrls.bytesPerActivate::256-383         9610      9.79%     98.44% # Bytes accessed per row activation
system.mem_ctrls.bytesPerActivate::384-511         1332      1.36%     99.80% # Bytes accessed per row activation
system.mem_ctrls.bytesPerActivate::512-639          158      0.16%     99.96% # Bytes accessed per row activation
system.mem_ctrls.bytesPerActivate::640-767           22      0.02%     99.98% # Bytes accessed per row activation
system.mem_ctrls.bytesPerActivate::768-895            7      0.01%     99.99% # Bytes accessed per row activation
system.mem_ctrls.bytesPerActivate::896-1023            5      0.01%     99.99% # Bytes accessed per row activation
system.mem_ctrls.bytesPerActivate::1024-1151            5      0.01%    100.00% # Bytes accessed per row activation
system.mem_ctrls.bytesPerActivate::total        98124                       # Bytes accessed per row activation
system.mem_ctrls.rdPerTurnAround::samples           20                       # Reads before turning the bus around for writes
system.mem_ctrls.rdPerTurnAround::mean    9981.250000                       # Reads before turning the bus around for writes
system.mem_ctrls.rdPerTurnAround::gmean   9822.693770                       # Reads before turning the bus around for writes
system.mem_ctrls.rdPerTurnAround::stdev   1865.875324                       # Reads before turning the bus around for writes
system.mem_ctrls.rdPerTurnAround::6656-7167            1      5.00%      5.00% # Reads before turning the bus around for writes
system.mem_ctrls.rdPerTurnAround::7168-7679            1      5.00%     10.00% # Reads before turning the bus around for writes
system.mem_ctrls.rdPerTurnAround::7680-8191            1      5.00%     15.00% # Reads before turning the bus around for writes
system.mem_ctrls.rdPerTurnAround::8704-9215            4     20.00%     35.00% # Reads before turning the bus around for writes
system.mem_ctrls.rdPerTurnAround::9216-9727            4     20.00%     55.00% # Reads before turning the bus around for writes
system.mem_ctrls.rdPerTurnAround::9728-10239            1      5.00%     60.00% # Reads before turning the bus around for writes
system.mem_ctrls.rdPerTurnAround::10240-10751            3     15.00%     75.00% # Reads before turning the bus around for writes
system.mem_ctrls.rdPerTurnAround::11264-11775            2     10.00%     85.00% # Reads before turning the bus around for writes
system.mem_ctrls.rdPerTurnAround::11776-12287            2     10.00%     95.00% # Reads before turning the bus around for writes
system.mem_ctrls.rdPerTurnAround::14848-15359            1      5.00%    100.00% # Reads before turning the bus around for writes
system.mem_ctrls.rdPerTurnAround::total            20                       # Reads before turning the bus around for writes
system.mem_ctrls.wrPerTurnAround::samples           20                       # Writes before turning the bus around for reads
system.mem_ctrls.wrPerTurnAround::mean             16                       # Writes before turning the bus around for reads
system.mem_ctrls.wrPerTurnAround::gmean     16.000000                       # Writes before turning the bus around for reads
system.mem_ctrls.wrPerTurnAround::16               20    100.00%    100.00% # Writes before turning the bus around for reads
system.mem_ctrls.wrPerTurnAround::total            20                       # Writes before turning the bus around for reads
system.mem_ctrls.totQLat                   4787015750                       # Total ticks spent queuing
system.mem_ctrls.totMemAccLat              8498053250                       # Total ticks spent from burst creation until serviced by the DRAM
system.mem_ctrls.totBusLat                  989610000                       # Total ticks spent in databus transfers
system.mem_ctrls.avgQLat                     24186.38                       # Average queueing delay per DRAM burst
system.mem_ctrls.avgBusLat                    5000.00                       # Average bus latency per DRAM burst
system.mem_ctrls.avgMemAccLat                42936.38                       # Average memory access latency per DRAM burst
system.mem_ctrls.avgRdBW                       829.68                       # Average DRAM read bandwidth in MiByte/s
system.mem_ctrls.avgWrBW                         1.34                       # Average achieved write bandwidth in MiByte/s
system.mem_ctrls.avgRdBWSys                    829.87                       # Average system read bandwidth in MiByte/s
system.mem_ctrls.avgWrBWSys                      1.37                       # Average system write bandwidth in MiByte/s
system.mem_ctrls.peakBW                      12800.00                       # Theoretical peak bandwidth in MiByte/s
system.mem_ctrls.busUtil                         6.49                       # Data bus utilization in percentage
system.mem_ctrls.busUtilRead                     6.48                       # Data bus utilization in percentage for reads
system.mem_ctrls.busUtilWrite                    0.01                       # Data bus utilization in percentage for writes
system.mem_ctrls.avgRdQLen                       1.32                       # Average read queue length when enqueuing
system.mem_ctrls.avgWrQLen                      25.64                       # Average write queue length when enqueuing
system.mem_ctrls.readRowHits                    99843                       # Number of row buffer hits during reads
system.mem_ctrls.writeRowHits                     276                       # Number of row buffer hits during writes
system.mem_ctrls.readRowHitRate                 50.45                       # Row buffer hit rate for reads
system.mem_ctrls.writeRowHitRate                84.92                       # Row buffer hit rate for writes
system.mem_ctrls.avgGap                      76993.50                       # Average gap between requests
system.mem_ctrls.pageHitRate                    50.50                       # Row buffer hit rate, read and write combined
system.mem_ctrls_0.actEnergy                352016280                       # Energy for activate commands per rank (pJ)
system.mem_ctrls_0.preEnergy                187104885                       # Energy for precharge commands per rank (pJ)
system.mem_ctrls_0.readEnergy               712443480                       # Energy for read commands per rank (pJ)
system.mem_ctrls_0.writeEnergy                1555560                       # Energy for write commands per rank (pJ)
system.mem_ctrls_0.refreshEnergy         1205309040.000000                       # Energy for refresh commands per rank (pJ)
system.mem_ctrls_0.actBackEnergy           1658473140                       # Energy for active background per rank (pJ)
system.mem_ctrls_0.preBackEnergy             24073920                       # Energy for precharge background per rank (pJ)
system.mem_ctrls_0.actPowerDownEnergy      5174693130                       # Energy for active power-down per rank (pJ)
system.mem_ctrls_0.prePowerDownEnergy        84340800                       # Energy for precharge power-down per rank (pJ)
system.mem_ctrls_0.selfRefreshEnergy                0                       # Energy for self refresh per rank (pJ)
system.mem_ctrls_0.totalEnergy             9400010235                       # Total energy per rank (pJ)
system.mem_ctrls_0.averagePower            615.693873                       # Core power per rank (mW)
system.mem_ctrls_0.totalIdleTime          11567381875                       # Total Idle time Per DRAM Rank
system.mem_ctrls_0.memoryStateTime::IDLE      9384000                       # Time in different power states
system.mem_ctrls_0.memoryStateTime::REF     509860000                       # Time in different power states
system.mem_ctrls_0.memoryStateTime::SREF            0                       # Time in different power states
system.mem_ctrls_0.memoryStateTime::PRE_PDN    220005250                       # Time in different power states
system.mem_ctrls_0.memoryStateTime::ACT    3180697500                       # Time in different power states
system.mem_ctrls_0.memoryStateTime::ACT_PDN  11347397375                       # Time in different power states
system.mem_ctrls_1.actEnergy                348581940                       # Energy for activate commands per rank (pJ)
system.mem_ctrls_1.preEnergy                185275695                       # Energy for precharge commands per rank (pJ)
system.mem_ctrls_1.readEnergy               700719600                       # Energy for read commands per rank (pJ)
system.mem_ctrls_1.writeEnergy                 114840                       # Energy for write commands per rank (pJ)
system.mem_ctrls_1.refreshEnergy         1205309040.000000                       # Energy for refresh commands per rank (pJ)
system.mem_ctrls_1.actBackEnergy           1637542170                       # Energy for active background per rank (pJ)
system.mem_ctrls_1.preBackEnergy             24457920                       # Energy for precharge background per rank (pJ)
system.mem_ctrls_1.actPowerDownEnergy      5155481850                       # Energy for active power-down per rank (pJ)
system.mem_ctrls_1.prePowerDownEnergy       117760800                       # Energy for precharge power-down per rank (pJ)
system.mem_ctrls_1.selfRefreshEnergy                0                       # Energy for self refresh per rank (pJ)
system.mem_ctrls_1.totalEnergy             9375243855                       # Total energy per rank (pJ)
system.mem_ctrls_1.averagePower            614.071693                       # Core power per rank (mW)
system.mem_ctrls_1.totalIdleTime          11610823375                       # Total Idle time Per DRAM Rank
system.mem_ctrls_1.memoryStateTime::IDLE      9451000                       # Time in different power states
system.mem_ctrls_1.memoryStateTime::REF     509860000                       # Time in different power states
system.mem_ctrls_1.memoryStateTime::SREF            0                       # Time in different power states
system.mem_ctrls_1.memoryStateTime::PRE_PDN    306331000                       # Time in different power states
system.mem_ctrls_1.memoryStateTime::ACT    3136635500                       # Time in different power states
system.mem_ctrls_1.memoryStateTime::ACT_PDN  11305066625                       # Time in different power states
system.pwrStateResidencyTicks::UNDEFINED  15267344125                       # Cumulative time (in ticks) in various power states
system.cpu0.branchPred.lookups                1319077                       # Number of BP lookups
system.cpu0.branchPred.condPredicted          1319077                       # Number of conditional branches predicted
system.cpu0.branchPred.condIncorrect            51544                       # Number of conditional branches incorrect
system.cpu0.branchPred.BTBLookups             1008560                       # Number of BTB lookups
system.cpu0.branchPred.BTBHits                      0                       # Number of BTB hits
system.cpu0.branchPred.BTBCorrect                   0                       # Number of correct BTB predictions (this stat may not work properly.
system.cpu0.branchPred.BTBHitPct             0.000000                       # BTB Hit Percentage
system.cpu0.branchPred.usedRAS                  34042                       # Number of times the RAS was used to get a target.
system.cpu0.branchPred.RASInCorrect              5369                       # Number of incorrect RAS predictions.
system.cpu0.branchPred.indirectLookups        1008560                       # Number of indirect predictor lookups.
system.cpu0.branchPred.indirectHits            568744                       # Number of indirect target hits.
system.cpu0.branchPred.indirectMisses          439816                       # Number of indirect misses.
system.cpu0.branchPredindirectMispredicted        16065                       # Number of mispredicted indirect branches.
system.cpu_voltage_domain.voltage                   1                       # Voltage in Volts
system.cpu_clk_domain.clock                       500                       # Clock period in ticks
system.cpu0.dtb.walker.pwrStateResidencyTicks::UNDEFINED  15267344125                       # Cumulative time (in ticks) in various power states
system.cpu0.dtb.rdAccesses                     629919                       # TLB accesses on read requests
system.cpu0.dtb.wrAccesses                      36539                       # TLB accesses on write requests
system.cpu0.dtb.rdMisses                       135689                       # TLB misses on read requests
system.cpu0.dtb.wrMisses                          650                       # TLB misses on write requests
system.cpu0.apic_clk_domain.clock                8000                       # Clock period in ticks
system.cpu0.interrupts.pwrStateResidencyTicks::UNDEFINED  15267344125                       # Cumulative time (in ticks) in various power states
system.cpu0.itb.walker.pwrStateResidencyTicks::UNDEFINED  15267344125                       # Cumulative time (in ticks) in various power states
system.cpu0.itb.rdAccesses                          0                       # TLB accesses on read requests
system.cpu0.itb.wrAccesses                    1106163                       # TLB accesses on write requests
system.cpu0.itb.rdMisses                            0                       # TLB misses on read requests
system.cpu0.itb.wrMisses                         3661                       # TLB misses on write requests
system.cpu0.workload.numSyscalls                    1                       # Number of system calls
system.cpu0.pwrStateResidencyTicks::ON    15267344125                       # Cumulative time (in ticks) in various power states
system.cpu0.numCycles                        30534689                       # number of cpu cycles simulated
system.cpu0.numWorkItemsStarted                     0                       # number of work items this cpu started
system.cpu0.numWorkItemsCompleted                   0                       # number of work items this cpu completed
system.cpu0.fetch.icacheStallCycles           1128818                       # Number of cycles fetch is stalled on an Icache miss
system.cpu0.fetch.Insts                       3802540                       # Number of instructions fetch has processed
system.cpu0.fetch.Branches                    1319077                       # Number of branches that fetch encountered
system.cpu0.fetch.predictedBranches            602786                       # Number of branches that fetch has predicted taken
system.cpu0.fetch.Cycles                     29270689                       # Number of cycles fetch has run and was not squashing or blocked
system.cpu0.fetch.SquashCycles                 105560                       # Number of cycles fetch has spent squashing
system.cpu0.fetch.TlbCycles                      3630                       # Number of cycles fetch has spent waiting for tlb
system.cpu0.fetch.MiscStallCycles                 865                       # Number of cycles fetch has spent waiting on interrupts, or bad addresses, or out of MSHRs
system.cpu0.fetch.PendingTrapStallCycles        33882                       # Number of stall cycles due to pending traps
system.cpu0.fetch.CacheLines                  1102502                       # Number of cache lines fetched
system.cpu0.fetch.IcacheSquashes                 5276                       # Number of outstanding Icache misses that were squashed
system.cpu0.fetch.ItlbSquashes                      3                       # Number of outstanding ITLB misses that were squashed
system.cpu0.fetch.rateDist::samples          30490664                       # Number of instructions fetched each cycle (Total)
system.cpu0.fetch.rateDist::mean             0.250764                       # Number of instructions fetched each cycle (Total)
system.cpu0.fetch.rateDist::stdev            1.262660                       # Number of instructions fetched each cycle (Total)
system.cpu0.fetch.rateDist::underflows              0      0.00%      0.00% # Number of instructions fetched each cycle (Total)
system.cpu0.fetch.rateDist::0                28992944     95.09%     95.09% # Number of instructions fetched each cycle (Total)
system.cpu0.fetch.rateDist::1                   18950      0.06%     95.15% # Number of instructions fetched each cycle (Total)
system.cpu0.fetch.rateDist::2                  559337      1.83%     96.98% # Number of instructions fetched each cycle (Total)
system.cpu0.fetch.rateDist::3                   19465      0.06%     97.05% # Number of instructions fetched each cycle (Total)
system.cpu0.fetch.rateDist::4                  108044      0.35%     97.40% # Number of instructions fetched each cycle (Total)
system.cpu0.fetch.rateDist::5                   50339      0.17%     97.57% # Number of instructions fetched each cycle (Total)
system.cpu0.fetch.rateDist::6                   73966      0.24%     97.81% # Number of instructions fetched each cycle (Total)
system.cpu0.fetch.rateDist::7                   18678      0.06%     97.87% # Number of instructions fetched each cycle (Total)
system.cpu0.fetch.rateDist::8                  648941      2.13%    100.00% # Number of instructions fetched each cycle (Total)
system.cpu0.fetch.rateDist::overflows               0      0.00%    100.00% # Number of instructions fetched each cycle (Total)
system.cpu0.fetch.rateDist::min_value               0                       # Number of instructions fetched each cycle (Total)
system.cpu0.fetch.rateDist::max_value               8                       # Number of instructions fetched each cycle (Total)
system.cpu0.fetch.rateDist::total            30490664                       # Number of instructions fetched each cycle (Total)
system.cpu0.fetch.branchRate                 0.043199                       # Number of branch fetches per cycle
system.cpu0.fetch.rate                       0.124532                       # Number of inst fetches per cycle
system.cpu0.decode.IdleCycles                  539609                       # Number of cycles decode is idle
system.cpu0.decode.BlockedCycles             28937609                       # Number of cycles decode is blocked
system.cpu0.decode.RunCycles                   683520                       # Number of cycles decode is running
system.cpu0.decode.UnblockCycles               277146                       # Number of cycles decode is unblocking
system.cpu0.decode.SquashCycles                 52780                       # Number of cycles decode is squashing
system.cpu0.decode.DecodedInsts               6273720                       # Number of instructions handled by decode
system.cpu0.rename.SquashCycles                 52780                       # Number of cycles rename is squashing
system.cpu0.rename.IdleCycles                  618547                       # Number of cycles rename is idle
system.cpu0.rename.BlockCycles               27745210                       # Number of cycles rename is blocking
system.cpu0.rename.serializeStallCycles          7027                       # count of cycles rename stalled for serializing inst
system.cpu0.rename.RunCycles                   810376                       # Number of cycles rename is running
system.cpu0.rename.UnblockCycles              1256724                       # Number of cycles rename is unblocking
system.cpu0.rename.RenamedInsts               6029092                       # Number of instructions processed by rename
system.cpu0.rename.ROBFullEvents                63215                       # Number of times rename has blocked due to ROB full
system.cpu0.rename.IQFullEvents                959070                       # Number of times rename has blocked due to IQ full
system.cpu0.rename.LQFullEvents                254168                       # Number of times rename has blocked due to LQ full
system.cpu0.rename.SQFullEvents                   601                       # Number of times rename has blocked due to SQ full
system.cpu0.rename.RenamedOperands            7195988                       # Number of destination operands rename has renamed
system.cpu0.rename.RenameLookups             16822038                       # Number of register rename lookups that rename has made
system.cpu0.rename.int_rename_lookups         7854884                       # Number of integer rename lookups
system.cpu0.rename.fp_rename_lookups            27640                       # Number of floating rename lookups
system.cpu0.rename.CommittedMaps              2661384                       # Number of HB maps that are committed
system.cpu0.rename.UndoneMaps                 4534605                       # Number of HB maps that are undone due to squashing
system.cpu0.rename.serializingInsts               191                       # count of serializing insts renamed
system.cpu0.rename.tempSerializingInsts           228                       # count of temporary serializing insts renamed
system.cpu0.rename.skidInsts                  1793692                       # count of insts added to the skid buffer
system.cpu0.memDep0.insertedLoads             1101764                       # Number of loads inserted to the mem dependence unit.
system.cpu0.memDep0.insertedStores              52952                       # Number of stores inserted to the mem dependence unit.
system.cpu0.memDep0.conflictingLoads             2599                       # Number of conflicting loads.
system.cpu0.memDep0.conflictingStores            3302                       # Number of conflicting stores.
system.cpu0.iq.iqInstsAdded                   5747495                       # Number of instructions added to the IQ (excludes non-spec)
system.cpu0.iq.iqNonSpecInstsAdded               3253                       # Number of non-speculative instructions added to the IQ
system.cpu0.iq.iqInstsIssued                  4134269                       # Number of instructions issued
system.cpu0.iq.iqSquashedInstsIssued             4378                       # Number of squashed instructions issued
system.cpu0.iq.iqSquashedInstsExamined        3530551                       # Number of squashed instructions iterated over during squash; mainly for profiling
system.cpu0.iq.iqSquashedOperandsExamined      7434899                       # Number of squashed operands that are examined and possibly removed from graph
system.cpu0.iq.iqSquashedNonSpecRemoved          3252                       # Number of squashed non-spec instructions that were removed
system.cpu0.iq.issued_per_cycle::samples     30490664                       # Number of insts issued each cycle
system.cpu0.iq.issued_per_cycle::mean        0.135591                       # Number of insts issued each cycle
system.cpu0.iq.issued_per_cycle::stdev       0.663533                       # Number of insts issued each cycle
system.cpu0.iq.issued_per_cycle::underflows            0      0.00%      0.00% # Number of insts issued each cycle
system.cpu0.iq.issued_per_cycle::0           28732397     94.23%     94.23% # Number of insts issued each cycle
system.cpu0.iq.issued_per_cycle::1             733487      2.41%     96.64% # Number of insts issued each cycle
system.cpu0.iq.issued_per_cycle::2             373224      1.22%     97.86% # Number of insts issued each cycle
system.cpu0.iq.issued_per_cycle::3             248685      0.82%     98.68% # Number of insts issued each cycle
system.cpu0.iq.issued_per_cycle::4             244656      0.80%     99.48% # Number of insts issued each cycle
system.cpu0.iq.issued_per_cycle::5              68000      0.22%     99.70% # Number of insts issued each cycle
system.cpu0.iq.issued_per_cycle::6              56518      0.19%     99.89% # Number of insts issued each cycle
system.cpu0.iq.issued_per_cycle::7              19029      0.06%     99.95% # Number of insts issued each cycle
system.cpu0.iq.issued_per_cycle::8              14668      0.05%    100.00% # Number of insts issued each cycle
system.cpu0.iq.issued_per_cycle::overflows            0      0.00%    100.00% # Number of insts issued each cycle
system.cpu0.iq.issued_per_cycle::min_value            0                       # Number of insts issued each cycle
system.cpu0.iq.issued_per_cycle::max_value            8                       # Number of insts issued each cycle
system.cpu0.iq.issued_per_cycle::total       30490664                       # Number of insts issued each cycle
system.cpu0.iq.fu_full::No_OpClass                  0      0.00%      0.00% # attempts to use FU when none available
system.cpu0.iq.fu_full::IntAlu                   7580     65.39%     65.39% # attempts to use FU when none available
system.cpu0.iq.fu_full::IntMult                     0      0.00%     65.39% # attempts to use FU when none available
system.cpu0.iq.fu_full::IntDiv                      0      0.00%     65.39% # attempts to use FU when none available
system.cpu0.iq.fu_full::FloatAdd                  864      7.45%     72.84% # attempts to use FU when none available
system.cpu0.iq.fu_full::FloatCmp                    0      0.00%     72.84% # attempts to use FU when none available
system.cpu0.iq.fu_full::FloatCvt                    0      0.00%     72.84% # attempts to use FU when none available
system.cpu0.iq.fu_full::FloatMult                   0      0.00%     72.84% # attempts to use FU when none available
system.cpu0.iq.fu_full::FloatMultAcc                0      0.00%     72.84% # attempts to use FU when none available
system.cpu0.iq.fu_full::FloatDiv                    0      0.00%     72.84% # attempts to use FU when none available
system.cpu0.iq.fu_full::FloatMisc                   0      0.00%     72.84% # attempts to use FU when none available
system.cpu0.iq.fu_full::FloatSqrt                   0      0.00%     72.84% # attempts to use FU when none available
system.cpu0.iq.fu_full::SimdAdd                     0      0.00%     72.84% # attempts to use FU when none available
system.cpu0.iq.fu_full::SimdAddAcc                  0      0.00%     72.84% # attempts to use FU when none available
system.cpu0.iq.fu_full::SimdAlu                     0      0.00%     72.84% # attempts to use FU when none available
system.cpu0.iq.fu_full::SimdCmp                     0      0.00%     72.84% # attempts to use FU when none available
system.cpu0.iq.fu_full::SimdCvt                     0      0.00%     72.84% # attempts to use FU when none available
system.cpu0.iq.fu_full::SimdMisc                    0      0.00%     72.84% # attempts to use FU when none available
system.cpu0.iq.fu_full::SimdMult                    0      0.00%     72.84% # attempts to use FU when none available
system.cpu0.iq.fu_full::SimdMultAcc                 0      0.00%     72.84% # attempts to use FU when none available
system.cpu0.iq.fu_full::SimdShift                   0      0.00%     72.84% # attempts to use FU when none available
system.cpu0.iq.fu_full::SimdShiftAcc                0      0.00%     72.84% # attempts to use FU when none available
system.cpu0.iq.fu_full::SimdSqrt                    0      0.00%     72.84% # attempts to use FU when none available
system.cpu0.iq.fu_full::SimdFloatAdd                0      0.00%     72.84% # attempts to use FU when none available
system.cpu0.iq.fu_full::SimdFloatAlu                0      0.00%     72.84% # attempts to use FU when none available
system.cpu0.iq.fu_full::SimdFloatCmp                0      0.00%     72.84% # attempts to use FU when none available
system.cpu0.iq.fu_full::SimdFloatCvt                0      0.00%     72.84% # attempts to use FU when none available
system.cpu0.iq.fu_full::SimdFloatDiv                0      0.00%     72.84% # attempts to use FU when none available
system.cpu0.iq.fu_full::SimdFloatMisc               0      0.00%     72.84% # attempts to use FU when none available
system.cpu0.iq.fu_full::SimdFloatMult               0      0.00%     72.84% # attempts to use FU when none available
system.cpu0.iq.fu_full::SimdFloatMultAcc            0      0.00%     72.84% # attempts to use FU when none available
system.cpu0.iq.fu_full::SimdFloatSqrt               0      0.00%     72.84% # attempts to use FU when none available
system.cpu0.iq.fu_full::MemRead                  2865     24.72%     97.56% # attempts to use FU when none available
system.cpu0.iq.fu_full::MemWrite                  214      1.85%     99.40% # attempts to use FU when none available
system.cpu0.iq.fu_full::FloatMemRead               30      0.26%     99.66% # attempts to use FU when none available
system.cpu0.iq.fu_full::FloatMemWrite              39      0.34%    100.00% # attempts to use FU when none available
system.cpu0.iq.fu_full::IprAccess                   0      0.00%    100.00% # attempts to use FU when none available
system.cpu0.iq.fu_full::InstPrefetch                0      0.00%    100.00% # attempts to use FU when none available
system.cpu0.iq.FU_type_0::No_OpClass            13059      0.32%      0.32% # Type of FU issued
system.cpu0.iq.FU_type_0::IntAlu              3408903     82.45%     82.77% # Type of FU issued
system.cpu0.iq.FU_type_0::IntMult                 584      0.01%     82.78% # Type of FU issued
system.cpu0.iq.FU_type_0::IntDiv                 6870      0.17%     82.95% # Type of FU issued
system.cpu0.iq.FU_type_0::FloatAdd              10879      0.26%     83.21% # Type of FU issued
system.cpu0.iq.FU_type_0::FloatCmp                  0      0.00%     83.21% # Type of FU issued
system.cpu0.iq.FU_type_0::FloatCvt                  0      0.00%     83.21% # Type of FU issued
system.cpu0.iq.FU_type_0::FloatMult                 0      0.00%     83.21% # Type of FU issued
system.cpu0.iq.FU_type_0::FloatMultAcc              0      0.00%     83.21% # Type of FU issued
system.cpu0.iq.FU_type_0::FloatDiv                  0      0.00%     83.21% # Type of FU issued
system.cpu0.iq.FU_type_0::FloatMisc                 0      0.00%     83.21% # Type of FU issued
system.cpu0.iq.FU_type_0::FloatSqrt                 0      0.00%     83.21% # Type of FU issued
system.cpu0.iq.FU_type_0::SimdAdd                   0      0.00%     83.21% # Type of FU issued
system.cpu0.iq.FU_type_0::SimdAddAcc                0      0.00%     83.21% # Type of FU issued
system.cpu0.iq.FU_type_0::SimdAlu                   0      0.00%     83.21% # Type of FU issued
system.cpu0.iq.FU_type_0::SimdCmp                   0      0.00%     83.21% # Type of FU issued
system.cpu0.iq.FU_type_0::SimdCvt                   0      0.00%     83.21% # Type of FU issued
system.cpu0.iq.FU_type_0::SimdMisc                  0      0.00%     83.21% # Type of FU issued
system.cpu0.iq.FU_type_0::SimdMult                  0      0.00%     83.21% # Type of FU issued
system.cpu0.iq.FU_type_0::SimdMultAcc               0      0.00%     83.21% # Type of FU issued
system.cpu0.iq.FU_type_0::SimdShift                 0      0.00%     83.21% # Type of FU issued
system.cpu0.iq.FU_type_0::SimdShiftAcc              0      0.00%     83.21% # Type of FU issued
system.cpu0.iq.FU_type_0::SimdSqrt                  0      0.00%     83.21% # Type of FU issued
system.cpu0.iq.FU_type_0::SimdFloatAdd              0      0.00%     83.21% # Type of FU issued
system.cpu0.iq.FU_type_0::SimdFloatAlu              0      0.00%     83.21% # Type of FU issued
system.cpu0.iq.FU_type_0::SimdFloatCmp              0      0.00%     83.21% # Type of FU issued
system.cpu0.iq.FU_type_0::SimdFloatCvt              0      0.00%     83.21% # Type of FU issued
system.cpu0.iq.FU_type_0::SimdFloatDiv              0      0.00%     83.21% # Type of FU issued
system.cpu0.iq.FU_type_0::SimdFloatMisc             0      0.00%     83.21% # Type of FU issued
system.cpu0.iq.FU_type_0::SimdFloatMult             0      0.00%     83.21% # Type of FU issued
system.cpu0.iq.FU_type_0::SimdFloatMultAcc            0      0.00%     83.21% # Type of FU issued
system.cpu0.iq.FU_type_0::SimdFloatSqrt             0      0.00%     83.21% # Type of FU issued
system.cpu0.iq.FU_type_0::MemRead              653284     15.80%     99.02% # Type of FU issued
system.cpu0.iq.FU_type_0::MemWrite              39118      0.95%     99.96% # Type of FU issued
system.cpu0.iq.FU_type_0::FloatMemRead           1421      0.03%    100.00% # Type of FU issued
system.cpu0.iq.FU_type_0::FloatMemWrite           151      0.00%    100.00% # Type of FU issued
system.cpu0.iq.FU_type_0::IprAccess                 0      0.00%    100.00% # Type of FU issued
system.cpu0.iq.FU_type_0::InstPrefetch              0      0.00%    100.00% # Type of FU issued
system.cpu0.iq.FU_type_0::total               4134269                       # Type of FU issued
system.cpu0.iq.rate                          0.135396                       # Inst issue rate
system.cpu0.iq.fu_busy_cnt                      11592                       # FU busy when requested
system.cpu0.iq.fu_busy_rate                  0.002804                       # FU busy rate (busy events/executed inst)
system.cpu0.iq.int_inst_queue_reads          38749130                       # Number of integer instruction queue reads
system.cpu0.iq.int_inst_queue_writes          9258456                       # Number of integer instruction queue writes
system.cpu0.iq.int_inst_queue_wakeup_accesses      3979159                       # Number of integer instruction queue wakeup accesses
system.cpu0.iq.fp_inst_queue_reads              26042                       # Number of floating instruction queue reads
system.cpu0.iq.fp_inst_queue_writes             22846                       # Number of floating instruction queue writes
system.cpu0.iq.fp_inst_queue_wakeup_accesses        11756                       # Number of floating instruction queue wakeup accesses
system.cpu0.iq.vec_inst_queue_reads                 0                       # Number of vector instruction queue reads
system.cpu0.iq.vec_inst_queue_writes                0                       # Number of vector instruction queue writes
system.cpu0.iq.vec_inst_queue_wakeup_accesses            0                       # Number of vector instruction queue wakeup accesses
system.cpu0.iq.int_alu_accesses               4119407                       # Number of integer alu accesses
system.cpu0.iq.fp_alu_accesses                  13395                       # Number of floating point alu accesses
system.cpu0.iq.vec_alu_accesses                     0                       # Number of vector alu accesses
system.cpu0.iew.lsq.thread0.forwLoads            3462                       # Number of loads that had data forwarded from stores
system.cpu0.iew.lsq.thread0.invAddrLoads            0                       # Number of loads ignored due to an invalid address
system.cpu0.iew.lsq.thread0.squashedLoads       679780                       # Number of loads squashed
system.cpu0.iew.lsq.thread0.ignoredResponses          120                       # Number of memory responses ignored because the instruction is squashed
system.cpu0.iew.lsq.thread0.memOrderViolation            4                       # Number of memory ordering violations
system.cpu0.iew.lsq.thread0.squashedStores        32962                       # Number of stores squashed
system.cpu0.iew.lsq.thread0.invAddrSwpfs            0                       # Number of software prefetches ignored due to an invalid address
system.cpu0.iew.lsq.thread0.blockedLoads            0                       # Number of blocked loads due to partial load-store forwarding
system.cpu0.iew.lsq.thread0.rescheduledLoads           29                       # Number of loads that were rescheduled
system.cpu0.iew.lsq.thread0.cacheBlocked         1305                       # Number of times an access to memory failed due to the cache being blocked
system.cpu0.iew.iewIdleCycles                       0                       # Number of cycles IEW is idle
system.cpu0.iew.iewSquashCycles                 52780                       # Number of cycles IEW is squashing
system.cpu0.iew.iewBlockCycles               26106675                       # Number of cycles IEW is blocking
system.cpu0.iew.iewUnblockCycles               266321                       # Number of cycles IEW is unblocking
system.cpu0.iew.iewDispatchedInsts            5750748                       # Number of instructions dispatched to IQ
system.cpu0.iew.iewDispSquashedInsts             3437                       # Number of squashed instructions skipped by dispatch
system.cpu0.iew.iewDispLoadInsts              1101764                       # Number of dispatched load instructions
system.cpu0.iew.iewDispStoreInsts               52952                       # Number of dispatched store instructions
system.cpu0.iew.iewDispNonSpecInsts              1201                       # Number of dispatched non-speculative instructions
system.cpu0.iew.iewIQFullEvents                 14798                       # Number of times the IQ has become full, causing a stall
system.cpu0.iew.iewLSQFullEvents                69921                       # Number of times the LSQ has become full, causing a stall
system.cpu0.iew.memOrderViolationEvents             4                       # Number of memory order violations
system.cpu0.iew.predictedTakenIncorrect         28624                       # Number of branches that were predicted taken incorrectly
system.cpu0.iew.predictedNotTakenIncorrect        29372                       # Number of branches that were predicted not taken incorrectly
system.cpu0.iew.branchMispredicts               57996                       # Number of branch mispredicts detected at execute
system.cpu0.iew.iewExecutedInsts              4070354                       # Number of executed instructions
system.cpu0.iew.iewExecLoadInsts               629739                       # Number of load instructions executed
system.cpu0.iew.iewExecSquashedInsts            63915                       # Number of squashed instructions skipped in execute
system.cpu0.iew.exec_swp                            0                       # number of swp insts executed
system.cpu0.iew.exec_nop                            0                       # number of nop insts executed
system.cpu0.iew.exec_refs                      666268                       # number of memory reference insts executed
system.cpu0.iew.exec_branches                  499473                       # Number of branches executed
system.cpu0.iew.exec_stores                     36529                       # Number of stores executed
system.cpu0.iew.exec_rate                    0.133303                       # Inst execution rate
system.cpu0.iew.wb_sent                       4002850                       # cumulative count of insts sent to commit
system.cpu0.iew.wb_count                      3990915                       # cumulative count of insts written-back
system.cpu0.iew.wb_producers                  2907048                       # num instructions producing a value
system.cpu0.iew.wb_consumers                  4620047                       # num instructions consuming a value
system.cpu0.iew.wb_rate                      0.130701                       # insts written-back per cycle
system.cpu0.iew.wb_fanout                    0.629225                       # average fanout of values written-back
system.cpu0.commit.commitSquashedInsts        3531256                       # The number of squashed insts skipped by commit
system.cpu0.commit.commitNonSpecStalls              1                       # The number of times commit has been forced to stall to communicate backwards
system.cpu0.commit.branchMispredicts            52778                       # The number of times a branch was mispredicted
system.cpu0.commit.committed_per_cycle::samples     29995201                       # Number of insts commited each cycle
system.cpu0.commit.committed_per_cycle::mean     0.074018                       # Number of insts commited each cycle
system.cpu0.commit.committed_per_cycle::stdev     0.492330                       # Number of insts commited each cycle
system.cpu0.commit.committed_per_cycle::underflows            0      0.00%      0.00% # Number of insts commited each cycle
system.cpu0.commit.committed_per_cycle::0     29007144     96.71%     96.71% # Number of insts commited each cycle
system.cpu0.commit.committed_per_cycle::1       460227      1.53%     98.24% # Number of insts commited each cycle
system.cpu0.commit.committed_per_cycle::2       110580      0.37%     98.61% # Number of insts commited each cycle
system.cpu0.commit.committed_per_cycle::3       303943      1.01%     99.62% # Number of insts commited each cycle
system.cpu0.commit.committed_per_cycle::4        48629      0.16%     99.78% # Number of insts commited each cycle
system.cpu0.commit.committed_per_cycle::5        23941      0.08%     99.86% # Number of insts commited each cycle
system.cpu0.commit.committed_per_cycle::6         5039      0.02%     99.88% # Number of insts commited each cycle
system.cpu0.commit.committed_per_cycle::7         3058      0.01%     99.89% # Number of insts commited each cycle
system.cpu0.commit.committed_per_cycle::8        32640      0.11%    100.00% # Number of insts commited each cycle
system.cpu0.commit.committed_per_cycle::overflows            0      0.00%    100.00% # Number of insts commited each cycle
system.cpu0.commit.committed_per_cycle::min_value            0                       # Number of insts commited each cycle
system.cpu0.commit.committed_per_cycle::max_value            8                       # Number of insts commited each cycle
system.cpu0.commit.committed_per_cycle::total     29995201                       # Number of insts commited each cycle
system.cpu0.commit.committedInsts             1110752                       # Number of instructions committed
system.cpu0.commit.committedOps               2220197                       # Number of ops (including micro ops) committed
system.cpu0.commit.swp_count                        0                       # Number of s/w prefetches committed
system.cpu0.commit.refs                        441974                       # Number of memory references committed
system.cpu0.commit.loads                       421984                       # Number of loads committed
system.cpu0.commit.membars                          0                       # Number of memory barriers committed
system.cpu0.commit.branches                    404156                       # Number of branches committed
system.cpu0.commit.vec_insts                        0                       # Number of committed Vector instructions.
system.cpu0.commit.fp_insts                      8022                       # Number of committed floating point instructions.
system.cpu0.commit.int_insts                  2212125                       # Number of committed integer instructions.
system.cpu0.commit.function_calls                3529                       # Number of function calls committed.
system.cpu0.commit.op_class_0::No_OpClass         2389      0.11%      0.11% # Class of committed instruction
system.cpu0.commit.op_class_0::IntAlu         1763092     79.41%     79.52% # Class of committed instruction
system.cpu0.commit.op_class_0::IntMult            141      0.01%     79.53% # Class of committed instruction
system.cpu0.commit.op_class_0::IntDiv            5749      0.26%     79.78% # Class of committed instruction
system.cpu0.commit.op_class_0::FloatAdd          6852      0.31%     80.09% # Class of committed instruction
system.cpu0.commit.op_class_0::FloatCmp             0      0.00%     80.09% # Class of committed instruction
system.cpu0.commit.op_class_0::FloatCvt             0      0.00%     80.09% # Class of committed instruction
system.cpu0.commit.op_class_0::FloatMult            0      0.00%     80.09% # Class of committed instruction
system.cpu0.commit.op_class_0::FloatMultAcc            0      0.00%     80.09% # Class of committed instruction
system.cpu0.commit.op_class_0::FloatDiv             0      0.00%     80.09% # Class of committed instruction
system.cpu0.commit.op_class_0::FloatMisc            0      0.00%     80.09% # Class of committed instruction
system.cpu0.commit.op_class_0::FloatSqrt            0      0.00%     80.09% # Class of committed instruction
system.cpu0.commit.op_class_0::SimdAdd              0      0.00%     80.09% # Class of committed instruction
system.cpu0.commit.op_class_0::SimdAddAcc            0      0.00%     80.09% # Class of committed instruction
system.cpu0.commit.op_class_0::SimdAlu              0      0.00%     80.09% # Class of committed instruction
system.cpu0.commit.op_class_0::SimdCmp              0      0.00%     80.09% # Class of committed instruction
system.cpu0.commit.op_class_0::SimdCvt              0      0.00%     80.09% # Class of committed instruction
system.cpu0.commit.op_class_0::SimdMisc             0      0.00%     80.09% # Class of committed instruction
system.cpu0.commit.op_class_0::SimdMult             0      0.00%     80.09% # Class of committed instruction
system.cpu0.commit.op_class_0::SimdMultAcc            0      0.00%     80.09% # Class of committed instruction
system.cpu0.commit.op_class_0::SimdShift            0      0.00%     80.09% # Class of committed instruction
system.cpu0.commit.op_class_0::SimdShiftAcc            0      0.00%     80.09% # Class of committed instruction
system.cpu0.commit.op_class_0::SimdSqrt             0      0.00%     80.09% # Class of committed instruction
system.cpu0.commit.op_class_0::SimdFloatAdd            0      0.00%     80.09% # Class of committed instruction
system.cpu0.commit.op_class_0::SimdFloatAlu            0      0.00%     80.09% # Class of committed instruction
system.cpu0.commit.op_class_0::SimdFloatCmp            0      0.00%     80.09% # Class of committed instruction
system.cpu0.commit.op_class_0::SimdFloatCvt            0      0.00%     80.09% # Class of committed instruction
system.cpu0.commit.op_class_0::SimdFloatDiv            0      0.00%     80.09% # Class of committed instruction
system.cpu0.commit.op_class_0::SimdFloatMisc            0      0.00%     80.09% # Class of committed instruction
system.cpu0.commit.op_class_0::SimdFloatMult            0      0.00%     80.09% # Class of committed instruction
system.cpu0.commit.op_class_0::SimdFloatMultAcc            0      0.00%     80.09% # Class of committed instruction
system.cpu0.commit.op_class_0::SimdFloatSqrt            0      0.00%     80.09% # Class of committed instruction
system.cpu0.commit.op_class_0::MemRead         420814     18.95%     99.05% # Class of committed instruction
system.cpu0.commit.op_class_0::MemWrite         19990      0.90%     99.95% # Class of committed instruction
system.cpu0.commit.op_class_0::FloatMemRead         1170      0.05%    100.00% # Class of committed instruction
system.cpu0.commit.op_class_0::FloatMemWrite            0      0.00%    100.00% # Class of committed instruction
system.cpu0.commit.op_class_0::IprAccess            0      0.00%    100.00% # Class of committed instruction
system.cpu0.commit.op_class_0::InstPrefetch            0      0.00%    100.00% # Class of committed instruction
system.cpu0.commit.op_class_0::total          2220197                       # Class of committed instruction
system.cpu0.commit.bw_lim_events                32640                       # number cycles where commit BW limit reached
system.cpu0.rob.rob_reads                    35714014                       # The number of ROB reads
system.cpu0.rob.rob_writes                   11999449                       # The number of ROB writes
system.cpu0.timesIdled                            325                       # Number of times that the entire CPU went into an idle state and unscheduled itself
system.cpu0.idleCycles                          44025                       # Total number of cycles that the CPU has spent unscheduled due to idling
system.cpu0.committedInsts                    1110752                       # Number of Instructions Simulated
system.cpu0.committedOps                      2220197                       # Number of Ops (including micro ops) Simulated
system.cpu0.cpi                             27.490105                       # CPI: Cycles Per Instruction
system.cpu0.cpi_total                       27.490105                       # CPI: Total CPI of All Threads
system.cpu0.ipc                              0.036377                       # IPC: Instructions Per Cycle
system.cpu0.ipc_total                        0.036377                       # IPC: Total IPC of All Threads
system.cpu0.int_regfile_reads                 4053109                       # number of integer regfile reads
system.cpu0.int_regfile_writes                3457556                       # number of integer regfile writes
system.cpu0.fp_regfile_reads                    21036                       # number of floating regfile reads
system.cpu0.fp_regfile_writes                   10460                       # number of floating regfile writes
system.cpu0.cc_regfile_reads                  2631586                       # number of cc regfile reads
system.cpu0.cc_regfile_writes                 1112909                       # number of cc regfile writes
system.cpu0.misc_regfile_reads                2162444                       # number of misc regfile reads
system.cpu0.dcache.tags.pwrStateResidencyTicks::UNDEFINED  15267344125                       # Cumulative time (in ticks) in various power states
system.cpu0.dcache.tags.replacements           223547                       # number of replacements
system.cpu0.dcache.tags.tagsinuse                1024                       # Cycle average of tags in use
system.cpu0.dcache.tags.total_refs             246859                       # Total number of references to valid blocks.
system.cpu0.dcache.tags.sampled_refs           223547                       # Sample count of references to valid blocks.
system.cpu0.dcache.tags.avg_refs             1.104282                       # Average number of references to valid blocks.
system.cpu0.dcache.tags.warmup_cycle                0                       # Cycle when the warmup percentage was hit.
system.cpu0.dcache.tags.occ_blocks::cpu0.data         1024                       # Average occupied blocks per requestor
system.cpu0.dcache.tags.occ_percent::cpu0.data            1                       # Average percentage of cache occupancy
system.cpu0.dcache.tags.occ_percent::total            1                       # Average percentage of cache occupancy
system.cpu0.dcache.tags.occ_task_id_blocks::1024         1024                       # Occupied blocks per task id
system.cpu0.dcache.tags.age_task_id_blocks_1024::0          123                       # Occupied blocks per task id
system.cpu0.dcache.tags.age_task_id_blocks_1024::1          814                       # Occupied blocks per task id
system.cpu0.dcache.tags.age_task_id_blocks_1024::2           87                       # Occupied blocks per task id
system.cpu0.dcache.tags.occ_task_id_percent::1024            1                       # Percentage of cache occupancy per task id
system.cpu0.dcache.tags.tag_accesses          2795227                       # Number of tag accesses
system.cpu0.dcache.tags.data_accesses         2795227                       # Number of data accesses
system.cpu0.dcache.pwrStateResidencyTicks::UNDEFINED  15267344125                       # Cumulative time (in ticks) in various power states
system.cpu0.dcache.ReadReq_hits::cpu0.data       227784                       # number of ReadReq hits
system.cpu0.dcache.ReadReq_hits::total         227784                       # number of ReadReq hits
system.cpu0.dcache.WriteReq_hits::cpu0.data        19219                       # number of WriteReq hits
system.cpu0.dcache.WriteReq_hits::total         19219                       # number of WriteReq hits
system.cpu0.dcache.demand_hits::cpu0.data       247003                       # number of demand (read+write) hits
system.cpu0.dcache.demand_hits::total          247003                       # number of demand (read+write) hits
system.cpu0.dcache.overall_hits::cpu0.data       247003                       # number of overall hits
system.cpu0.dcache.overall_hits::total         247003                       # number of overall hits
system.cpu0.dcache.ReadReq_misses::cpu0.data       395146                       # number of ReadReq misses
system.cpu0.dcache.ReadReq_misses::total       395146                       # number of ReadReq misses
system.cpu0.dcache.WriteReq_misses::cpu0.data          771                       # number of WriteReq misses
system.cpu0.dcache.WriteReq_misses::total          771                       # number of WriteReq misses
system.cpu0.dcache.demand_misses::cpu0.data       395917                       # number of demand (read+write) misses
system.cpu0.dcache.demand_misses::total        395917                       # number of demand (read+write) misses
system.cpu0.dcache.overall_misses::cpu0.data       395917                       # number of overall misses
system.cpu0.dcache.overall_misses::total       395917                       # number of overall misses
system.cpu0.dcache.ReadReq_miss_latency::cpu0.data  34343142500                       # number of ReadReq miss cycles
system.cpu0.dcache.ReadReq_miss_latency::total  34343142500                       # number of ReadReq miss cycles
system.cpu0.dcache.WriteReq_miss_latency::cpu0.data     28138498                       # number of WriteReq miss cycles
system.cpu0.dcache.WriteReq_miss_latency::total     28138498                       # number of WriteReq miss cycles
system.cpu0.dcache.demand_miss_latency::cpu0.data  34371280998                       # number of demand (read+write) miss cycles
system.cpu0.dcache.demand_miss_latency::total  34371280998                       # number of demand (read+write) miss cycles
system.cpu0.dcache.overall_miss_latency::cpu0.data  34371280998                       # number of overall miss cycles
system.cpu0.dcache.overall_miss_latency::total  34371280998                       # number of overall miss cycles
system.cpu0.dcache.ReadReq_accesses::cpu0.data       622930                       # number of ReadReq accesses(hits+misses)
system.cpu0.dcache.ReadReq_accesses::total       622930                       # number of ReadReq accesses(hits+misses)
system.cpu0.dcache.WriteReq_accesses::cpu0.data        19990                       # number of WriteReq accesses(hits+misses)
system.cpu0.dcache.WriteReq_accesses::total        19990                       # number of WriteReq accesses(hits+misses)
system.cpu0.dcache.demand_accesses::cpu0.data       642920                       # number of demand (read+write) accesses
system.cpu0.dcache.demand_accesses::total       642920                       # number of demand (read+write) accesses
system.cpu0.dcache.overall_accesses::cpu0.data       642920                       # number of overall (read+write) accesses
system.cpu0.dcache.overall_accesses::total       642920                       # number of overall (read+write) accesses
system.cpu0.dcache.ReadReq_miss_rate::cpu0.data     0.634335                       # miss rate for ReadReq accesses
system.cpu0.dcache.ReadReq_miss_rate::total     0.634335                       # miss rate for ReadReq accesses
system.cpu0.dcache.WriteReq_miss_rate::cpu0.data     0.038569                       # miss rate for WriteReq accesses
system.cpu0.dcache.WriteReq_miss_rate::total     0.038569                       # miss rate for WriteReq accesses
system.cpu0.dcache.demand_miss_rate::cpu0.data     0.615811                       # miss rate for demand accesses
system.cpu0.dcache.demand_miss_rate::total     0.615811                       # miss rate for demand accesses
system.cpu0.dcache.overall_miss_rate::cpu0.data     0.615811                       # miss rate for overall accesses
[...]
system.l2.ReadSharedReq_accesses::total        222781                       # number of ReadSharedReq accesses(hits+misses)
system.l2.demand_accesses::cpu0.inst                2                       # number of demand (read+write) accesses
system.l2.demand_accesses::cpu0.data           223547                       # number of demand (read+write) accesses
system.l2.demand_accesses::total               223549                       # number of demand (read+write) accesses
system.l2.overall_accesses::cpu0.inst               2                       # number of overall (read+write) accesses
system.l2.overall_accesses::cpu0.data          223547                       # number of overall (read+write) accesses
system.l2.overall_accesses::total              223549                       # number of overall (read+write) accesses
system.l2.ReadExReq_miss_rate::cpu0.data     0.251958                       # miss rate for ReadExReq accesses
system.l2.ReadExReq_miss_rate::total         0.251958                       # miss rate for ReadExReq accesses
system.l2.ReadCleanReq_miss_rate::cpu0.inst            1                       # miss rate for ReadCleanReq accesses
system.l2.ReadCleanReq_miss_rate::total             1                       # miss rate for ReadCleanReq accesses
system.l2.ReadSharedReq_miss_rate::cpu0.data     0.887742                       # miss rate for ReadSharedReq accesses
system.l2.ReadSharedReq_miss_rate::total     0.887742                       # miss rate for ReadSharedReq accesses
system.l2.demand_miss_rate::cpu0.inst               1                       # miss rate for demand accesses
system.l2.demand_miss_rate::cpu0.data        0.885563                       # miss rate for demand accesses
system.l2.demand_miss_rate::total            0.885564                       # miss rate for demand accesses
system.l2.overall_miss_rate::cpu0.inst              1                       # miss rate for overall accesses
system.l2.overall_miss_rate::cpu0.data       0.885563                       # miss rate for overall accesses
system.l2.overall_miss_rate::total           0.885564                       # miss rate for overall accesses
system.l2.ReadExReq_avg_miss_latency::cpu0.data 100694.300518                       # average ReadExReq miss latency
system.l2.ReadExReq_avg_miss_latency::total 100694.300518                       # average ReadExReq miss latency
system.l2.ReadCleanReq_avg_miss_latency::cpu0.inst        95500                       # average ReadCleanReq miss latency
system.l2.ReadCleanReq_avg_miss_latency::total        95500                       # average ReadCleanReq miss latency
system.l2.ReadSharedReq_avg_miss_latency::cpu0.data 94538.784560                       # average ReadSharedReq miss latency
system.l2.ReadSharedReq_avg_miss_latency::total 94538.784560                       # average ReadSharedReq miss latency
system.l2.demand_avg_miss_latency::cpu0.inst        95500                       # average overall miss latency
system.l2.demand_avg_miss_latency::cpu0.data 94544.785694                       # average overall miss latency
system.l2.demand_avg_miss_latency::total 94544.795345                       # average overall miss latency
system.l2.overall_avg_miss_latency::cpu0.inst        95500                       # average overall miss latency
system.l2.overall_avg_miss_latency::cpu0.data 94544.785694                       # average overall miss latency
system.l2.overall_avg_miss_latency::total 94544.795345                       # average overall miss latency
system.l2.blocked_cycles::no_mshrs                  0                       # number of cycles access was blocked
system.l2.blocked_cycles::no_targets                0                       # number of cycles access was blocked
system.l2.blocked::no_mshrs                         0                       # number of cycles access was blocked
system.l2.blocked::no_targets                       0                       # number of cycles access was blocked
system.l2.avg_blocked_cycles::no_mshrs            nan                       # average number of cycles each access was blocked
system.l2.avg_blocked_cycles::no_targets          nan                       # average number of cycles each access was blocked
system.l2.writebacks::writebacks                  327                       # number of writebacks
system.l2.writebacks::total                       327                       # number of writebacks
system.l2.ReadExReq_mshr_misses::cpu0.data          193                       # number of ReadExReq MSHR misses
system.l2.ReadExReq_mshr_misses::total            193                       # number of ReadExReq MSHR misses
system.l2.ReadCleanReq_mshr_misses::cpu0.inst            2                       # number of ReadCleanReq MSHR misses
system.l2.ReadCleanReq_mshr_misses::total            2                       # number of ReadCleanReq MSHR misses
system.l2.ReadSharedReq_mshr_misses::cpu0.data       197772                       # number of ReadSharedReq MSHR misses
system.l2.ReadSharedReq_mshr_misses::total       197772                       # number of ReadSharedReq MSHR misses
system.l2.demand_mshr_misses::cpu0.inst             2                       # number of demand (read+write) MSHR misses
system.l2.demand_mshr_misses::cpu0.data        197965                       # number of demand (read+write) MSHR misses
system.l2.demand_mshr_misses::total            197967                       # number of demand (read+write) MSHR misses
system.l2.overall_mshr_misses::cpu0.inst            2                       # number of overall MSHR misses
system.l2.overall_mshr_misses::cpu0.data       197965                       # number of overall MSHR misses
system.l2.overall_mshr_misses::total           197967                       # number of overall MSHR misses
system.l2.ReadExReq_mshr_miss_latency::cpu0.data     17504000                       # number of ReadExReq MSHR miss cycles
system.l2.ReadExReq_mshr_miss_latency::total     17504000                       # number of ReadExReq MSHR miss cycles
system.l2.ReadCleanReq_mshr_miss_latency::cpu0.inst       171000                       # number of ReadCleanReq MSHR miss cycles
system.l2.ReadCleanReq_mshr_miss_latency::total       171000                       # number of ReadCleanReq MSHR miss cycles
system.l2.ReadSharedReq_mshr_miss_latency::cpu0.data  16719404500                       # number of ReadSharedReq MSHR miss cycles
system.l2.ReadSharedReq_mshr_miss_latency::total  16719404500                       # number of ReadSharedReq MSHR miss cycles
system.l2.demand_mshr_miss_latency::cpu0.inst       171000                       # number of demand (read+write) MSHR miss cycles
system.l2.demand_mshr_miss_latency::cpu0.data  16736908500                       # number of demand (read+write) MSHR miss cycles
system.l2.demand_mshr_miss_latency::total  16737079500                       # number of demand (read+write) MSHR miss cycles
system.l2.overall_mshr_miss_latency::cpu0.inst       171000                       # number of overall MSHR miss cycles
system.l2.overall_mshr_miss_latency::cpu0.data  16736908500                       # number of overall MSHR miss cycles
system.l2.overall_mshr_miss_latency::total  16737079500                       # number of overall MSHR miss cycles
system.l2.ReadExReq_mshr_miss_rate::cpu0.data     0.251958                       # mshr miss rate for ReadExReq accesses
system.l2.ReadExReq_mshr_miss_rate::total     0.251958                       # mshr miss rate for ReadExReq accesses
system.l2.ReadCleanReq_mshr_miss_rate::cpu0.inst            1                       # mshr miss rate for ReadCleanReq accesses
system.l2.ReadCleanReq_mshr_miss_rate::total            1                       # mshr miss rate for ReadCleanReq accesses
system.l2.ReadSharedReq_mshr_miss_rate::cpu0.data     0.887742                       # mshr miss rate for ReadSharedReq accesses
system.l2.ReadSharedReq_mshr_miss_rate::total     0.887742                       # mshr miss rate for ReadSharedReq accesses
system.l2.demand_mshr_miss_rate::cpu0.inst            1                       # mshr miss rate for demand accesses
system.l2.demand_mshr_miss_rate::cpu0.data     0.885563                       # mshr miss rate for demand accesses
system.l2.demand_mshr_miss_rate::total       0.885564                       # mshr miss rate for demand accesses
system.l2.overall_mshr_miss_rate::cpu0.inst            1                       # mshr miss rate for overall accesses
system.l2.overall_mshr_miss_rate::cpu0.data     0.885563                       # mshr miss rate for overall accesses
system.l2.overall_mshr_miss_rate::total      0.885564                       # mshr miss rate for overall accesses
system.l2.ReadExReq_avg_mshr_miss_latency::cpu0.data 90694.300518                       # average ReadExReq mshr miss latency
system.l2.ReadExReq_avg_mshr_miss_latency::total 90694.300518                       # average ReadExReq mshr miss latency
system.l2.ReadCleanReq_avg_mshr_miss_latency::cpu0.inst        85500                       # average ReadCleanReq mshr miss latency
system.l2.ReadCleanReq_avg_mshr_miss_latency::total        85500                       # average ReadCleanReq mshr miss latency
system.l2.ReadSharedReq_avg_mshr_miss_latency::cpu0.data 84538.784560                       # average ReadSharedReq mshr miss latency
system.l2.ReadSharedReq_avg_mshr_miss_latency::total 84538.784560                       # average ReadSharedReq mshr miss latency
system.l2.demand_avg_mshr_miss_latency::cpu0.inst        85500                       # average overall mshr miss latency
system.l2.demand_avg_mshr_miss_latency::cpu0.data 84544.785694                       # average overall mshr miss latency
system.l2.demand_avg_mshr_miss_latency::total 84544.795345                       # average overall mshr miss latency
system.l2.overall_avg_mshr_miss_latency::cpu0.inst        85500                       # average overall mshr miss latency
system.l2.overall_avg_mshr_miss_latency::cpu0.data 84544.785694                       # average overall mshr miss latency
system.l2.overall_avg_mshr_miss_latency::total 84544.795345                       # average overall mshr miss latency
system.membus.snoop_filter.tot_requests        395926                       # Total number of requests made to the snoop filter.
system.membus.snoop_filter.hit_single_requests       197966                       # Number of requests hitting in the snoop filter with a single holder of the requested data.
system.membus.snoop_filter.hit_multi_requests            0                       # Number of requests hitting in the snoop filter with multiple (>1) holders of the requested data.
system.membus.snoop_filter.tot_snoops               0                       # Total number of snoops made to the snoop filter.
system.membus.snoop_filter.hit_single_snoops            0                       # Number of snoops hitting in the snoop filter with a single holder of the requested data.
system.membus.snoop_filter.hit_multi_snoops            0                       # Number of snoops hitting in the snoop filter with multiple (>1) holders of the requested data.
system.membus.pwrStateResidencyTicks::UNDEFINED  15267344125                       # Cumulative time (in ticks) in various power states
system.membus.trans_dist::ReadResp             197774                       # Transaction distribution
system.membus.trans_dist::WritebackDirty          327                       # Transaction distribution
system.membus.trans_dist::CleanEvict           197632                       # Transaction distribution
system.membus.trans_dist::ReadExReq               193                       # Transaction distribution
system.membus.trans_dist::ReadExResp              193                       # Transaction distribution
system.membus.trans_dist::ReadSharedReq        197774                       # Transaction distribution
system.membus.pkt_count_system.l2.mem_side::system.mem_ctrls.port       593893                       # Packet count per connected master and slave (bytes)
system.membus.pkt_count_system.l2.mem_side::total       593893                       # Packet count per connected master and slave (bytes)
system.membus.pkt_count::total                 593893                       # Packet count per connected master and slave (bytes)
system.membus.pkt_size_system.l2.mem_side::system.mem_ctrls.port     12690816                       # Cumulative packet size per connected master and slave (bytes)
system.membus.pkt_size_system.l2.mem_side::total     12690816                       # Cumulative packet size per connected master and slave (bytes)
system.membus.pkt_size::total                12690816                       # Cumulative packet size per connected master and slave (bytes)
system.membus.snoops                                0                       # Total snoops (count)
system.membus.snoopTraffic                          0                       # Total snoop traffic (bytes)
system.membus.snoop_fanout::samples            197967                       # Request fanout histogram
system.membus.snoop_fanout::mean                    0                       # Request fanout histogram
system.membus.snoop_fanout::stdev                   0                       # Request fanout histogram
system.membus.snoop_fanout::underflows              0      0.00%      0.00% # Request fanout histogram
system.membus.snoop_fanout::0                  197967    100.00%    100.00% # Request fanout histogram
system.membus.snoop_fanout::1                       0      0.00%    100.00% # Request fanout histogram
system.membus.snoop_fanout::overflows               0      0.00%    100.00% # Request fanout histogram
system.membus.snoop_fanout::min_value               0                       # Request fanout histogram
system.membus.snoop_fanout::max_value               0                       # Request fanout histogram
system.membus.snoop_fanout::total              197967                       # Request fanout histogram
system.membus.reqLayer4.occupancy           467559000                       # Layer occupancy (ticks)
system.membus.reqLayer4.utilization               3.1                       # Layer utilization (%)
system.membus.respLayer1.occupancy         1069525500                       # Layer occupancy (ticks)
system.membus.respLayer1.utilization              7.0                       # Layer utilization (%)
system.tol2bus.snoop_filter.tot_requests       447098                       # Total number of requests made to the snoop filter.
system.tol2bus.snoop_filter.hit_single_requests       223548                       # Number of requests hitting in the snoop filter with a single holder of the requested data.
system.tol2bus.snoop_filter.hit_multi_requests          509                       # Number of requests hitting in the snoop filter with multiple (>1) holders of the requested data.
system.tol2bus.snoop_filter.tot_snoops             13                       # Total number of snoops made to the snoop filter.
system.tol2bus.snoop_filter.hit_single_snoops           13                       # Number of snoops hitting in the snoop filter with a single holder of the requested data.
system.tol2bus.snoop_filter.hit_multi_snoops            0                       # Number of snoops hitting in the snoop filter with multiple (>1) holders of the requested data.
system.tol2bus.pwrStateResidencyTicks::UNDEFINED  15267344125                       # Cumulative time (in ticks) in various power states
system.tol2bus.trans_dist::ReadResp            222783                       # Transaction distribution
system.tol2bus.trans_dist::WritebackDirty         2276                       # Transaction distribution
system.tol2bus.trans_dist::WritebackClean            2                       # Transaction distribution
system.tol2bus.trans_dist::CleanEvict          419243                       # Transaction distribution
system.tol2bus.trans_dist::ReadExReq              766                       # Transaction distribution
system.tol2bus.trans_dist::ReadExResp             766                       # Transaction distribution
system.tol2bus.trans_dist::ReadCleanReq             2                       # Transaction distribution
system.tol2bus.trans_dist::ReadSharedReq       222781                       # Transaction distribution
system.tol2bus.pkt_count_system.cpu0.icache.mem_side::system.l2.cpu_side            6                       # Packet count per connected master and slave (bytes)
system.tol2bus.pkt_count_system.cpu0.dcache.mem_side::system.l2.cpu_side       670641                       # Packet count per connected master and slave (bytes)
system.tol2bus.pkt_count::total                670647                       # Packet count per connected master and slave (bytes)
system.tol2bus.pkt_size_system.cpu0.icache.mem_side::system.l2.cpu_side          256                       # Cumulative packet size per connected master and slave (bytes)
system.tol2bus.pkt_size_system.cpu0.dcache.mem_side::system.l2.cpu_side     14431744                       # Cumulative packet size per connected master and slave (bytes)
system.tol2bus.pkt_size::total               14432000                       # Cumulative packet size per connected master and slave (bytes)
system.tol2bus.snoops                          197972                       # Total snoops (count)
system.tol2bus.snoopTraffic                     20928                       # Total snoop traffic (bytes)
system.tol2bus.snoop_fanout::samples           421521                       # Request fanout histogram
system.tol2bus.snoop_fanout::mean            0.001236                       # Request fanout histogram
system.tol2bus.snoop_fanout::stdev           0.035135                       # Request fanout histogram
system.tol2bus.snoop_fanout::underflows             0      0.00%      0.00% # Request fanout histogram
system.tol2bus.snoop_fanout::0                 421000     99.88%     99.88% # Request fanout histogram
system.tol2bus.snoop_fanout::1                    521      0.12%    100.00% # Request fanout histogram
system.tol2bus.snoop_fanout::2                      0      0.00%    100.00% # Request fanout histogram
system.tol2bus.snoop_fanout::3                      0      0.00%    100.00% # Request fanout histogram
system.tol2bus.snoop_fanout::4                      0      0.00%    100.00% # Request fanout histogram
system.tol2bus.snoop_fanout::5                      0      0.00%    100.00% # Request fanout histogram
system.tol2bus.snoop_fanout::6                      0      0.00%    100.00% # Request fanout histogram
system.tol2bus.snoop_fanout::7                      0      0.00%    100.00% # Request fanout histogram
system.tol2bus.snoop_fanout::8                      0      0.00%    100.00% # Request fanout histogram
system.tol2bus.snoop_fanout::overflows              0      0.00%    100.00% # Request fanout histogram
system.tol2bus.snoop_fanout::min_value              0                       # Request fanout histogram
system.tol2bus.snoop_fanout::max_value              1                       # Request fanout histogram
system.tol2bus.snoop_fanout::total             421521                       # Request fanout histogram
system.tol2bus.reqLayer0.occupancy          225500000                       # Layer occupancy (ticks)
system.tol2bus.reqLayer0.utilization              1.5                       # Layer utilization (%)
system.tol2bus.respLayer0.occupancy              3000                       # Layer occupancy (ticks)
system.tol2bus.respLayer0.utilization             0.0                       # Layer utilization (%)
system.tol2bus.respLayer1.occupancy         335320500                       # Layer occupancy (ticks)
system.tol2bus.respLayer1.utilization             2.2                       # Layer utilization (%)

---------- End Simulation Statistics   ----------
