
---------- Begin Simulation Statistics ----------
sim_seconds                                  0.015267                       # Number of seconds simulated
sim_ticks                                 15267344125                       # Number of ticks simulated
final_tick                               8656584118875                       # Number of ticks from beginning of simulation (restored from checkpoints and never reset)
sim_freq                                 1000000000000                       # Frequency of simulated ticks
host_inst_rate                               78000485                       # Simulator instruction rate (inst/s)
host_op_rate                                145279015                       # Simulator op (including micro ops) rate (op/s)
host_tick_rate                              199360133                       # Simulator tick rate (ticks/s)
host_mem_usage                                1248940                       # Number of bytes of host memory used
host_seconds                                    76.58                       # Real time elapsed on the host
sim_insts                                  5973409292                       # Number of instructions simulated
sim_ops                                   11125715909                       # Number of ops (including micro ops) simulated
system.voltage_domain.voltage                       1                       # Voltage in Volts
system.clk_domain.clock                          1000                       # Clock period in ticks
system.mem_ctrls.pwrStateResidencyTicks::UNDEFINED  15267344125                       # Cumulative time (in ticks) in various power states
system.mem_ctrls.bytes_read::cpu0.data       12636352                       # Number of bytes read from this memory
system.mem_ctrls.bytes_read::total           12636352                       # Number of bytes read from this memory
system.mem_ctrls.bytes_written::writebacks        20160                       # Number of bytes written to this memory
system.mem_ctrls.bytes_written::total           20160                       # Number of bytes written to this memory
system.mem_ctrls.num_reads::cpu0.data          197443                       # Number of read requests responded to by this memory
system.mem_ctrls.num_reads::total              197443                       # Number of read requests responded to by this memory
system.mem_ctrls.num_writes::writebacks           315                       # Number of write requests responded to by this memory
system.mem_ctrls.num_writes::total                315                       # Number of write requests responded to by this memory
system.mem_ctrls.bw_read::cpu0.data         827671918                       # Total read bandwidth from this memory (bytes/s)
system.mem_ctrls.bw_read::total             827671918                       # Total read bandwidth from this memory (bytes/s)
system.mem_ctrls.bw_write::writebacks         1320465                       # Write bandwidth from this memory (bytes/s)
system.mem_ctrls.bw_write::total              1320465                       # Write bandwidth from this memory (bytes/s)
system.mem_ctrls.bw_total::writebacks         1320465                       # Total bandwidth to/from this memory (bytes/s)
system.mem_ctrls.bw_total::cpu0.data        827671918                       # Total bandwidth to/from this memory (bytes/s)
system.mem_ctrls.bw_total::total            828992384                       # Total bandwidth to/from this memory (bytes/s)
system.mem_ctrls.readReqs                      197442                       # Number of read requests accepted
system.mem_ctrls.writeReqs                        315                       # Number of write requests accepted
system.mem_ctrls.readBursts                    197442                       # Number of DRAM read bursts, including those serviced by the write queue
system.mem_ctrls.writeBursts                      315                       # Number of DRAM write bursts, including those merged in the write queue
system.mem_ctrls.bytesReadDRAM               12632448                       # Total number of bytes read from DRAM
system.mem_ctrls.bytesReadWrQ                    3840                       # Total number of bytes read from write queue
system.mem_ctrls.bytesWritten                   20480                       # Total number of bytes written to DRAM
system.mem_ctrls.bytesReadSys                12636288                       # Total read bytes from the system interface side
system.mem_ctrls.bytesWrittenSys                20160                       # Total written bytes from the system interface side
system.mem_ctrls.servicedByWrQ                     60                       # Number of DRAM read bursts serviced by the write queue
system.mem_ctrls.mergedWrBursts                     3                       # Number of DRAM write bursts merged with an existing one
system.mem_ctrls.neitherReadNorWriteReqs            0                       # Number of requests that are neither read nor write
system.mem_ctrls.perBankRdBursts::0             11989                       # Per bank write bursts
system.mem_ctrls.perBankRdBursts::1             12186                       # Per bank write bursts
system.mem_ctrls.perBankRdBursts::2             12312                       # Per bank write bursts
system.mem_ctrls.perBankRdBursts::3             12705                       # Per bank write bursts
system.mem_ctrls.perBankRdBursts::4             12859                       # Per bank write bursts
system.mem_ctrls.perBankRdBursts::5             12450                       # Per bank write bursts
system.mem_ctrls.perBankRdBursts::6             12558                       # Per bank write bursts
system.mem_ctrls.perBankRdBursts::7             12180                       # Per bank write bursts
system.mem_ctrls.perBankRdBursts::8             12484                       # Per bank write bursts
system.mem_ctrls.perBankRdBursts::9             12422                       # Per bank write bursts
system.mem_ctrls.perBankRdBursts::10            12236                       # Per bank write bursts
system.mem_ctrls.perBankRdBursts::11            12383                       # Per bank write bursts
system.mem_ctrls.perBankRdBursts::12            12291                       # Per bank write bursts
system.mem_ctrls.perBankRdBursts::13            11951                       # Per bank write bursts
system.mem_ctrls.perBankRdBursts::14            12237                       # Per bank write bursts
system.mem_ctrls.perBankRdBursts::15            12139                       # Per bank write bursts
system.mem_ctrls.perBankWrBursts::0                 0                       # Per bank write bursts
system.mem_ctrls.perBankWrBursts::1                 0                       # Per bank write bursts
system.mem_ctrls.perBankWrBursts::2                 0                       # Per bank write bursts
system.mem_ctrls.perBankWrBursts::3                97                       # Per bank write bursts
system.mem_ctrls.perBankWrBursts::4               114                       # Per bank write bursts
system.mem_ctrls.perBankWrBursts::5                80                       # Per bank write bursts
system.mem_ctrls.perBankWrBursts::6                 0                       # Per bank write bursts
system.mem_ctrls.perBankWrBursts::7                 0                       # Per bank write bursts
system.mem_ctrls.perBankWrBursts::8                10                       # Per bank write bursts
system.mem_ctrls.perBankWrBursts::9                 0                       # Per bank write bursts
system.mem_ctrls.perBankWrBursts::10                0                       # Per bank write bursts
system.mem_ctrls.perBankWrBursts::11                0                       # Per bank write bursts
system.mem_ctrls.perBankWrBursts::12                0                       # Per bank write bursts
system.mem_ctrls.perBankWrBursts::13                0                       # Per bank write bursts
system.mem_ctrls.perBankWrBursts::14                0                       # Per bank write bursts
system.mem_ctrls.perBankWrBursts::15               19                       # Per bank write bursts
system.mem_ctrls.numRdRetry                         0                       # Number of times read queue was full causing retry
system.mem_ctrls.numWrRetry                         0                       # Number of times write queue was full causing retry
system.mem_ctrls.totGap                   15267344500                       # Total gap between requests
system.mem_ctrls.readPktSize::0                     0                       # Read request sizes (log2)
system.mem_ctrls.readPktSize::1                     0                       # Read request sizes (log2)
system.mem_ctrls.readPktSize::2                     0                       # Read request sizes (log2)
system.mem_ctrls.readPktSize::3                     0                       # Read request sizes (log2)
system.mem_ctrls.readPktSize::4                     0                       # Read request sizes (log2)
system.mem_ctrls.readPktSize::5                     0                       # Read request sizes (log2)
system.mem_ctrls.readPktSize::6                197442                       # Read request sizes (log2)
system.mem_ctrls.writePktSize::0                    0                       # Write request sizes (log2)
system.mem_ctrls.writePktSize::1                    0                       # Write request sizes (log2)
system.mem_ctrls.writePktSize::2                    0                       # Write request sizes (log2)
system.mem_ctrls.writePktSize::3                    0                       # Write request sizes (log2)
system.mem_ctrls.writePktSize::4                    0                       # Write request sizes (log2)
system.mem_ctrls.writePktSize::5                    0                       # Write request sizes (log2)
system.mem_ctrls.writePktSize::6                  315                       # Write request sizes (log2)
system.mem_ctrls.rdQLenPdf::0                  148355                       # What read queue length does an incoming req see
system.mem_ctrls.rdQLenPdf::1                   45774                       # What read queue length does an incoming req see
system.mem_ctrls.rdQLenPdf::2                    3205                       # What read queue length does an incoming req see
system.mem_ctrls.rdQLenPdf::3                      48                       # What read queue length does an incoming req see
system.mem_ctrls.rdQLenPdf::4                       0                       # What read queue length does an incoming req see
system.mem_ctrls.rdQLenPdf::5                       0                       # What read queue length does an incoming req see
system.mem_ctrls.rdQLenPdf::6                       0                       # What read queue length does an incoming req see
system.mem_ctrls.rdQLenPdf::7                       0                       # What read queue length does an incoming req see
system.mem_ctrls.rdQLenPdf::8                       0                       # What read queue length does an incoming req see
system.mem_ctrls.rdQLenPdf::9                       0                       # What read queue length does an incoming req see
system.mem_ctrls.rdQLenPdf::10                      0                       # What read queue length does an incoming req see
system.mem_ctrls.rdQLenPdf::11                      0                       # What read queue length does an incoming req see
system.mem_ctrls.rdQLenPdf::12                      0                       # What read queue length does an incoming req see
system.mem_ctrls.rdQLenPdf::13                      0                       # What read queue length does an incoming req see
system.mem_ctrls.rdQLenPdf::14                      0                       # What read queue length does an incoming req see
system.mem_ctrls.rdQLenPdf::15                      0                       # What read queue length does an incoming req see
system.mem_ctrls.rdQLenPdf::16                      0                       # What read queue length does an incoming req see
system.mem_ctrls.rdQLenPdf::17                      0                       # What read queue length does an incoming req see
system.mem_ctrls.rdQLenPdf::18                      0                       # What read queue length does an incoming req see
system.mem_ctrls.rdQLenPdf::19                      0                       # What read queue length does an incoming req see
system.mem_ctrls.rdQLenPdf::20                      0                       # What read queue length does an incoming req see
system.mem_ctrls.rdQLenPdf::21                      0                       # What read queue length does an incoming req see
system.mem_ctrls.rdQLenPdf::22                      0                       # What read queue length does an incoming req see
system.mem_ctrls.rdQLenPdf::23                      0                       # What read queue length does an incoming req see
system.mem_ctrls.rdQLenPdf::24                      0                       # What read queue length does an incoming req see
system.mem_ctrls.rdQLenPdf::25                      0                       # What read queue length does an incoming req see
system.mem_ctrls.rdQLenPdf::26                      0                       # What read queue length does an incoming req see
system.mem_ctrls.rdQLenPdf::27                      0                       # What read queue length does an incoming req see
system.mem_ctrls.rdQLenPdf::28                      0                       # What read queue length does an incoming req see
system.mem_ctrls.rdQLenPdf::29                      0                       # What read queue length does an incoming req see
system.mem_ctrls.rdQLenPdf::30                      0                       # What read queue length does an incoming req see
system.mem_ctrls.rdQLenPdf::31                      0                       # What read queue length does an incoming req see
system.mem_ctrls.wrQLenPdf::0                       0                       # What write queue length does an incoming req see
system.mem_ctrls.wrQLenPdf::1                       0                       # What write queue length does an incoming req see
system.mem_ctrls.wrQLenPdf::2                       0                       # What write queue length does an incoming req see
system.mem_ctrls.wrQLenPdf::3                       0                       # What write queue length does an incoming req see
system.mem_ctrls.wrQLenPdf::4                       0                       # What write queue length does an incoming req see
system.mem_ctrls.wrQLenPdf::5                       0                       # What write queue length does an incoming req see
system.mem_ctrls.wrQLenPdf::6                       0                       # What write queue length does an incoming req see
system.mem_ctrls.wrQLenPdf::7                       0                       # What write queue length does an incoming req see
system.mem_ctrls.wrQLenPdf::8                       0                       # What write queue length does an incoming req see
system.mem_ctrls.wrQLenPdf::9                       0                       # What write queue length does an incoming req see
system.mem_ctrls.wrQLenPdf::10                      0                       # What write queue length does an incoming req see
system.mem_ctrls.wrQLenPdf::11                      0                       # What write queue length does an incoming req see
system.mem_ctrls.wrQLenPdf::12                      0                       # What write queue length does an incoming req see
system.mem_ctrls.wrQLenPdf::13                      0                       # What write queue length does an incoming req see
system.mem_ctrls.wrQLenPdf::14                      0                       # What write queue length does an incoming req see
system.mem_ctrls.wrQLenPdf::15                      0                       # What write queue length does an incoming req see
system.mem_ctrls.wrQLenPdf::16                      0                       # What write queue length does an incoming req see
system.mem_ctrls.wrQLenPdf::17                     20                       # What write queue length does an incoming req see
system.mem_ctrls.wrQLenPdf::18                     20                       # What write queue length does an incoming req see
system.mem_ctrls.wrQLenPdf::19                     20                       # What write queue length does an incoming req see
system.mem_ctrls.wrQLenPdf::20                     20                       # What write queue length does an incoming req see
system.mem_ctrls.wrQLenPdf::21                     20                       # What write queue length does an incoming req see
system.mem_ctrls.wrQLenPdf::22                     20                       # What write queue length does an incoming req see
system.mem_ctrls.wrQLenPdf::23                     20                       # What write queue length does an incoming req see
system.mem_ctrls.wrQLenPdf::24                     19                       # What write queue length does an incoming req see
system.mem_ctrls.wrQLenPdf::25                     19                       # What write queue length does an incoming req see
system.mem_ctrls.wrQLenPdf::26                     19                       # What write queue length does an incoming req see
system.mem_ctrls.wrQLenPdf::27                     19                       # What write queue length does an incoming req see
system.mem_ctrls.wrQLenPdf::28                     19                       # What write queue length does an incoming req see
system.mem_ctrls.wrQLenPdf::29                     19                       # What write queue length does an incoming req see
system.mem_ctrls.wrQLenPdf::30                     19                       # What write queue length does an incoming req see
system.mem_ctrls.wrQLenPdf::31                     19                       # What write queue length does an incoming req see
system.mem_ctrls.wrQLenPdf::32                     20                       # What write queue length does an incoming req see
system.mem_ctrls.wrQLenPdf::33                      0                       # What write queue length does an incoming req see
system.mem_ctrls.wrQLenPdf::34                      0                       # What write queue length does an incoming req see
system.mem_ctrls.wrQLenPdf::35                      0                       # What write queue length does an incoming req see
system.mem_ctrls.wrQLenPdf::36                      0                       # What write queue length does an incoming req see
system.mem_ctrls.wrQLenPdf::37                      0                       # What write queue length does an incoming req see
system.mem_ctrls.wrQLenPdf::38                      0                       # What write queue length does an incoming req see
system.mem_ctrls.wrQLenPdf::39                      0                       # What write queue length does an incoming req see
system.mem_ctrls.wrQLenPdf::40                      0                       # What write queue length does an incoming req see
system.mem_ctrls.wrQLenPdf::41                      0                       # What write queue length does an incoming req see
system.mem_ctrls.wrQLenPdf::42                      0                       # What write queue length does an incoming req see
system.mem_ctrls.wrQLenPdf::43                      0                       # What write queue length does an incoming req see
system.mem_ctrls.wrQLenPdf::44                      0                       # What write queue length does an incoming req see
system.mem_ctrls.wrQLenPdf::45                      0                       # What write queue length does an incoming req see
system.mem_ctrls.wrQLenPdf::46                      0                       # What write queue length does an incoming req see
system.mem_ctrls.wrQLenPdf::47                      0                       # What write queue length does an incoming req see
system.mem_ctrls.wrQLenPdf::48                      0                       # What write queue length does an incoming req see
system.mem_ctrls.wrQLenPdf::49                      0                       # What write queue length does an incoming req see
system.mem_ctrls.wrQLenPdf::50                      0                       # What write queue length does an incoming req see
system.mem_ctrls.wrQLenPdf::51                      0                       # What write queue length does an incoming req see
system.mem_ctrls.wrQLenPdf::52                      0                       # What write queue length does an incoming req see
system.mem_ctrls.wrQLenPdf::53                      0                       # What write queue length does an incoming req see
system.mem_ctrls.wrQLenPdf::54                      0                       # What write queue length does an incoming req see
system.mem_ctrls.wrQLenPdf::55                      0                       # What write queue length does an incoming req see
system.mem_ctrls.wrQLenPdf::56                      0                       # What write queue length does an incoming req see
system.mem_ctrls.wrQLenPdf::57                      0                       # What write queue length does an incoming req see
system.mem_ctrls.wrQLenPdf::58                      0                       # What write queue length does an incoming req see
system.mem_ctrls.wrQLenPdf::59                      0                       # What write queue length does an incoming req see
system.mem_ctrls.wrQLenPdf::60                      0                       # What write queue length does an incoming req see
system.mem_ctrls.wrQLenPdf::61                      0                       # What write queue length does an incoming req see
system.mem_ctrls.wrQLenPdf::62                      0                       # What write queue length does an incoming req see
system.mem_ctrls.wrQLenPdf::63                      0                       # What write queue length does an incoming req see
system.mem_ctrls.bytesPerActivate::samples        97452                       # Bytes accessed per row activation
system.mem_ctrls.bytesPerActivate::mean    129.842794                       # Bytes accessed per row activation
system.mem_ctrls.bytesPerActivate::gmean   111.580725                       # Bytes accessed per row activation
system.mem_ctrls.bytesPerActivate::stdev    77.458776                       # Bytes accessed per row activation
system.mem_ctrls.bytesPerActivate::0-127        41055     42.13%     42.13% # Bytes accessed per row activation
system.mem_ctrls.bytesPerActivate::128-255        45005     46.18%     88.31% # Bytes accessed per row activation
system.mem_ctrls.bytesPerActivate::256-383         9822     10.08%     98.39% # Bytes accessed per row activation
system.mem_ctrls.bytesPerActivate::384-511         1380      1.42%     99.81% # Bytes accessed per row activation
system.mem_ctrls.bytesPerActivate::512-639          156      0.16%     99.97% # Bytes accessed per row activation
system.mem_ctrls.bytesPerActivate::640-767           20      0.02%     99.99% # Bytes accessed per row activation
system.mem_ctrls.bytesPerActivate::768-895            7      0.01%     99.99% # Bytes accessed per row activation
system.mem_ctrls.bytesPerActivate::896-1023            2      0.00%     99.99% # Bytes accessed per row activation
system.mem_ctrls.bytesPerActivate::1024-1151            5      0.01%    100.00% # Bytes accessed per row activation
system.mem_ctrls.bytesPerActivate::total        97452                       # Bytes accessed per row activation
system.mem_ctrls.rdPerTurnAround::samples           20                       # Reads before turning the bus around for writes
system.mem_ctrls.rdPerTurnAround::mean   10220.900000                       # Reads before turning the bus around for writes
system.mem_ctrls.rdPerTurnAround::gmean  10002.360128                       # Reads before turning the bus around for writes
system.mem_ctrls.rdPerTurnAround::stdev   2160.269888                       # Reads before turning the bus around for writes
system.mem_ctrls.rdPerTurnAround::6656-7167            2     10.00%     10.00% # Reads before turning the bus around for writes
system.mem_ctrls.rdPerTurnAround::7168-7679            1      5.00%     15.00% # Reads before turning the bus around for writes
system.mem_ctrls.rdPerTurnAround::7680-8191            1      5.00%     20.00% # Reads before turning the bus around for writes
system.mem_ctrls.rdPerTurnAround::8192-8703            1      5.00%     25.00% # Reads before turning the bus around for writes
system.mem_ctrls.rdPerTurnAround::8704-9215            1      5.00%     30.00% # Reads before turning the bus around for writes
system.mem_ctrls.rdPerTurnAround::9216-9727            4     20.00%     50.00% # Reads before turning the bus around for writes
system.mem_ctrls.rdPerTurnAround::9728-10239            1      5.00%     55.00% # Reads before turning the bus around for writes
system.mem_ctrls.rdPerTurnAround::10752-11263            2     10.00%     65.00% # Reads before turning the bus around for writes
system.mem_ctrls.rdPerTurnAround::11264-11775            2     10.00%     75.00% # Reads before turning the bus around for writes
system.mem_ctrls.rdPerTurnAround::11776-12287            1      5.00%     80.00% # Reads before turning the bus around for writes
system.mem_ctrls.rdPerTurnAround::12288-12799            1      5.00%     85.00% # Reads before turning the bus around for writes
system.mem_ctrls.rdPerTurnAround::12800-13311            2     10.00%     95.00% # Reads before turning the bus around for writes
system.mem_ctrls.rdPerTurnAround::14336-14847            1      5.00%    100.00% # Reads before turning the bus around for writes
system.mem_ctrls.rdPerTurnAround::total            20                       # Reads before turning the bus around for writes
system.mem_ctrls.wrPerTurnAround::samples           20                       # Writes before turning the bus around for reads
system.mem_ctrls.wrPerTurnAround::mean             16                       # Writes before turning the bus around for reads
system.mem_ctrls.wrPerTurnAround::gmean     16.000000                       # Writes before turning the bus around for reads
system.mem_ctrls.wrPerTurnAround::16               20    100.00%    100.00% # Writes before turning the bus around for reads
system.mem_ctrls.wrPerTurnAround::total            20                       # Writes before turning the bus around for reads
system.mem_ctrls.totQLat                   4806695500                       # Total ticks spent queuing
system.mem_ctrls.totMemAccLat              8507608000                       # Total ticks spent from burst creation until serviced by the DRAM
system.mem_ctrls.totBusLat                  986910000                       # Total ticks spent in databus transfers
system.mem_ctrls.avgQLat                     24352.25                       # Average queueing delay per DRAM burst
system.mem_ctrls.avgBusLat                    5000.00                       # Average bus latency per DRAM burst
system.mem_ctrls.avgMemAccLat                43102.25                       # Average memory access latency per DRAM burst
system.mem_ctrls.avgRdBW                       827.42                       # Average DRAM read bandwidth in MiByte/s
system.mem_ctrls.avgWrBW                         1.34                       # Average achieved write bandwidth in MiByte/s
system.mem_ctrls.avgRdBWSys                    827.67                       # Average system read bandwidth in MiByte/s
system.mem_ctrls.avgWrBWSys                      1.32                       # Average system write bandwidth in MiByte/s
system.mem_ctrls.peakBW                      12800.00                       # Theoretical peak bandwidth in MiByte/s
system.mem_ctrls.busUtil                         6.47                       # Data bus utilization in percentage
system.mem_ctrls.busUtilRead                     6.46                       # Data bus utilization in percentage for reads
system.mem_ctrls.busUtilWrite                    0.01                       # Data bus utilization in percentage for writes
system.mem_ctrls.avgRdQLen                       1.33                       # Average read queue length when enqueuing
system.mem_ctrls.avgWrQLen                      25.28                       # Average write queue length when enqueuing
system.mem_ctrls.readRowHits                    99981                       # Number of row buffer hits during reads
system.mem_ctrls.writeRowHits                     273                       # Number of row buffer hits during writes
system.mem_ctrls.readRowHitRate                 50.65                       # Row buffer hit rate for reads
system.mem_ctrls.writeRowHitRate                87.50                       # Row buffer hit rate for writes
system.mem_ctrls.avgGap                      77202.55                       # Average gap between requests
system.mem_ctrls.pageHitRate                    50.71                       # Row buffer hit rate, read and write combined
system.mem_ctrls_0.actEnergy                349524420                       # Energy for activate commands per rank (pJ)
system.mem_ctrls_0.preEnergy                185788020                       # Energy for precharge commands per rank (pJ)
system.mem_ctrls_0.readEnergy               708566460                       # Energy for read commands per rank (pJ)
system.mem_ctrls_0.writeEnergy                1519020                       # Energy for write commands per rank (pJ)
system.mem_ctrls_0.refreshEnergy         1205309040.000000                       # Energy for refresh commands per rank (pJ)
system.mem_ctrls_0.actBackEnergy           1644447150                       # Energy for active background per rank (pJ)
system.mem_ctrls_0.preBackEnergy             24095520                       # Energy for precharge background per rank (pJ)
system.mem_ctrls_0.actPowerDownEnergy      5164579620                       # Energy for active power-down per rank (pJ)
system.mem_ctrls_0.prePowerDownEnergy       104647680                       # Energy for precharge power-down per rank (pJ)
system.mem_ctrls_0.selfRefreshEnergy                0                       # Energy for self refresh per rank (pJ)
system.mem_ctrls_0.totalEnergy             9388476930                       # Total energy per rank (pJ)
system.mem_ctrls_0.averagePower            614.938450                       # Core power per rank (mW)
system.mem_ctrls_0.totalIdleTime          11597468000                       # Total Idle time Per DRAM Rank
system.mem_ctrls_0.memoryStateTime::IDLE      9459750                       # Time in different power states
system.mem_ctrls_0.memoryStateTime::REF     509860000                       # Time in different power states
system.mem_ctrls_0.memoryStateTime::SREF            0                       # Time in different power states
system.mem_ctrls_0.memoryStateTime::PRE_PDN    272867750                       # Time in different power states
system.mem_ctrls_0.memoryStateTime::ACT    3150052750                       # Time in different power states
system.mem_ctrls_0.memoryStateTime::ACT_PDN  11325103875                       # Time in different power states
system.mem_ctrls_1.actEnergy                346254300                       # Energy for activate commands per rank (pJ)
system.mem_ctrls_1.preEnergy                184042320                       # Energy for precharge commands per rank (pJ)
system.mem_ctrls_1.readEnergy               700748160                       # Energy for read commands per rank (pJ)
system.mem_ctrls_1.writeEnergy                 151380                       # Energy for write commands per rank (pJ)
system.mem_ctrls_1.refreshEnergy         1205309040.000000                       # Energy for refresh commands per rank (pJ)
system.mem_ctrls_1.actBackEnergy           1631918550                       # Energy for active background per rank (pJ)
system.mem_ctrls_1.preBackEnergy             24492000                       # Energy for precharge background per rank (pJ)
system.mem_ctrls_1.actPowerDownEnergy      5180732850                       # Energy for active power-down per rank (pJ)
system.mem_ctrls_1.prePowerDownEnergy       101198880                       # Energy for precharge power-down per rank (pJ)
system.mem_ctrls_1.selfRefreshEnergy                0                       # Energy for self refresh per rank (pJ)
system.mem_ctrls_1.totalEnergy             9374847480                       # Total energy per rank (pJ)
system.mem_ctrls_1.averagePower            614.045731                       # Core power per rank (mW)
system.mem_ctrls_1.totalIdleTime          11625206500                       # Total Idle time Per DRAM Rank
system.mem_ctrls_1.memoryStateTime::IDLE      9455250                       # Time in different power states
system.mem_ctrls_1.memoryStateTime::REF     509860000                       # Time in different power states
system.mem_ctrls_1.memoryStateTime::SREF            0                       # Time in different power states
system.mem_ctrls_1.memoryStateTime::PRE_PDN    263374250                       # Time in different power states
system.mem_ctrls_1.memoryStateTime::ACT    3122818750                       # Time in different power states
system.mem_ctrls_1.memoryStateTime::ACT_PDN  11361835875                       # Time in different power states
system.pwrStateResidencyTicks::UNDEFINED  15267344125                       # Cumulative time (in ticks) in various power states
system.cpu0.branchPred.lookups                1452453                       # Number of BP lookups
system.cpu0.branchPred.condPredicted          1452453                       # Number of conditional branches predicted
system.cpu0.branchPred.condIncorrect            60845                       # Number of conditional branches incorrect
system.cpu0.branchPred.BTBLookups             1108896                       # Number of BTB lookups
system.cpu0.branchPred.BTBHits                      0                       # Number of BTB hits
system.cpu0.branchPred.BTBCorrect                   0                       # Number of correct BTB predictions (this stat may not work properly.
system.cpu0.branchPred.BTBHitPct             0.000000                       # BTB Hit Percentage
system.cpu0.branchPred.usedRAS                  39718                       # Number of times the RAS was used to get a target.
system.cpu0.branchPred.RASInCorrect              6474                       # Number of incorrect RAS predictions.
system.cpu0.branchPred.indirectLookups        1108896                       # Number of indirect predictor lookups.
system.cpu0.branchPred.indirectHits            618437                       # Number of indirect target hits.
system.cpu0.branchPred.indirectMisses          490459                       # Number of indirect misses.
system.cpu0.branchPredindirectMispredicted        18668                       # Number of mispredicted indirect branches.
system.cpu_voltage_domain.voltage                   1                       # Voltage in Volts
system.cpu_clk_domain.clock                       500                       # Clock period in ticks
system.cpu0.dtb.walker.pwrStateResidencyTicks::UNDEFINED  15267344125                       # Cumulative time (in ticks) in various power states
system.cpu0.dtb.rdAccesses                     685505                       # TLB accesses on read requests
system.cpu0.dtb.wrAccesses                      40440                       # TLB accesses on write requests
system.cpu0.dtb.rdMisses                       140678                       # TLB misses on read requests
system.cpu0.dtb.wrMisses                          714                       # TLB misses on write requests
system.cpu0.apic_clk_domain.clock                8000                       # Clock period in ticks
system.cpu0.interrupts.pwrStateResidencyTicks::UNDEFINED  15267344125                       # Cumulative time (in ticks) in various power states
system.cpu0.itb.walker.pwrStateResidencyTicks::UNDEFINED  15267344125                       # Cumulative time (in ticks) in various power states
system.cpu0.itb.rdAccesses                          0                       # TLB accesses on read requests
system.cpu0.itb.wrAccesses                    1198932                       # TLB accesses on write requests
system.cpu0.itb.rdMisses                            0                       # TLB misses on read requests
system.cpu0.itb.wrMisses                         6283                       # TLB misses on write requests
system.cpu0.workload.numSyscalls                    0                       # Number of system calls
system.cpu0.pwrStateResidencyTicks::ON    15267344125                       # Cumulative time (in ticks) in various power states
system.cpu0.numCycles                        30534688                       # number of cpu cycles simulated
system.cpu0.numWorkItemsStarted                     0                       # number of work items this cpu started
system.cpu0.numWorkItemsCompleted                   0                       # number of work items this cpu completed
system.cpu0.fetch.icacheStallCycles           1224157                       # Number of cycles fetch is stalled on an Icache miss
system.cpu0.fetch.Insts                       4218812                       # Number of instructions fetch has processed
system.cpu0.fetch.Branches                    1452453                       # Number of branches that fetch encountered
system.cpu0.fetch.predictedBranches            658155                       # Number of branches that fetch has predicted taken
system.cpu0.fetch.Cycles                     29098609                       # Number of cycles fetch has run and was not squashing or blocked
system.cpu0.fetch.SquashCycles                 125834                       # Number of cycles fetch has spent squashing
system.cpu0.fetch.TlbCycles                      3515                       # Number of cycles fetch has spent waiting for tlb
system.cpu0.fetch.MiscStallCycles                1371                       # Number of cycles fetch has spent waiting on interrupts, or bad addresses, or out of MSHRs
system.cpu0.fetch.PendingTrapStallCycles        58773                       # Number of stall cycles due to pending traps
system.cpu0.fetch.CacheLines                  1192649                       # Number of cache lines fetched
system.cpu0.fetch.IcacheSquashes                 5884                       # Number of outstanding Icache misses that were squashed
system.cpu0.fetch.ItlbSquashes                      6                       # Number of outstanding ITLB misses that were squashed
system.cpu0.fetch.rateDist::samples          30449342                       # Number of instructions fetched each cycle (Total)
system.cpu0.fetch.rateDist::mean             0.278906                       # Number of instructions fetched each cycle (Total)
system.cpu0.fetch.rateDist::stdev            1.331602                       # Number of instructions fetched each cycle (Total)
system.cpu0.fetch.rateDist::underflows              0      0.00%      0.00% # Number of instructions fetched each cycle (Total)
system.cpu0.fetch.rateDist::0                28803436     94.59%     94.59% # Number of instructions fetched each cycle (Total)
system.cpu0.fetch.rateDist::1                   18045      0.06%     94.65% # Number of instructions fetched each cycle (Total)
system.cpu0.fetch.rateDist::2                  599462      1.97%     96.62% # Number of instructions fetched each cycle (Total)
system.cpu0.fetch.rateDist::3                   22809      0.07%     96.70% # Number of instructions fetched each cycle (Total)
system.cpu0.fetch.rateDist::4                  117224      0.38%     97.08% # Number of instructions fetched each cycle (Total)
system.cpu0.fetch.rateDist::5                   63605      0.21%     97.29% # Number of instructions fetched each cycle (Total)
system.cpu0.fetch.rateDist::6                   78566      0.26%     97.55% # Number of instructions fetched each cycle (Total)
system.cpu0.fetch.rateDist::7                   20766      0.07%     97.62% # Number of instructions fetched each cycle (Total)
system.cpu0.fetch.rateDist::8                  725429      2.38%    100.00% # Number of instructions fetched each cycle (Total)
system.cpu0.fetch.rateDist::overflows               0      0.00%    100.00% # Number of instructions fetched each cycle (Total)
system.cpu0.fetch.rateDist::min_value               0                       # Number of instructions fetched each cycle (Total)
system.cpu0.fetch.rateDist::max_value               8                       # Number of instructions fetched each cycle (Total)
system.cpu0.fetch.rateDist::total            30449342                       # Number of instructions fetched each cycle (Total)
system.cpu0.fetch.branchRate                 0.047567                       # Number of branch fetches per cycle
system.cpu0.fetch.rate                       0.138165                       # Number of inst fetches per cycle
system.cpu0.decode.IdleCycles                  602378                       # Number of cycles decode is idle
system.cpu0.decode.BlockedCycles             28723916                       # Number of cycles decode is blocked
system.cpu0.decode.RunCycles                   767462                       # Number of cycles decode is running
system.cpu0.decode.UnblockCycles               292669                       # Number of cycles decode is unblocking
system.cpu0.decode.SquashCycles                 62917                       # Number of cycles decode is squashing
system.cpu0.decode.DecodedInsts               6914833                       # Number of instructions handled by decode
system.cpu0.rename.SquashCycles                 62917                       # Number of cycles rename is squashing
system.cpu0.rename.IdleCycles                  687431                       # Number of cycles rename is idle
system.cpu0.rename.BlockCycles               27449336                       # Number of cycles rename is blocking
system.cpu0.rename.serializeStallCycles          9544                       # count of cycles rename stalled for serializing inst
system.cpu0.rename.RunCycles                   898866                       # Number of cycles rename is running
system.cpu0.rename.UnblockCycles              1341248                       # Number of cycles rename is unblocking
system.cpu0.rename.RenamedInsts               6633166                       # Number of instructions processed by rename
system.cpu0.rename.ROBFullEvents                83752                       # Number of times rename has blocked due to ROB full
system.cpu0.rename.IQFullEvents                994284                       # Number of times rename has blocked due to IQ full
system.cpu0.rename.LQFullEvents                307879                       # Number of times rename has blocked due to LQ full
system.cpu0.rename.SQFullEvents                   380                       # Number of times rename has blocked due to SQ full
system.cpu0.rename.RenamedOperands            7919922                       # Number of destination operands rename has renamed
system.cpu0.rename.RenameLookups             18467375                       # Number of register rename lookups that rename has made
system.cpu0.rename.int_rename_lookups         8673781                       # Number of integer rename lookups
system.cpu0.rename.fp_rename_lookups            30057                       # Number of floating rename lookups
system.cpu0.rename.CommittedMaps              2749845                       # Number of HB maps that are committed
system.cpu0.rename.UndoneMaps                 5170028                       # Number of HB maps that are undone due to squashing
system.cpu0.rename.serializingInsts               221                       # count of serializing insts renamed
system.cpu0.rename.tempSerializingInsts           268                       # count of temporary serializing insts renamed
system.cpu0.rename.skidInsts                  1894934                       # count of insts added to the skid buffer
system.cpu0.memDep0.insertedLoads             1210133                       # Number of loads inserted to the mem dependence unit.
system.cpu0.memDep0.insertedStores              58692                       # Number of stores inserted to the mem dependence unit.
system.cpu0.memDep0.conflictingLoads             3254                       # Number of conflicting loads.
system.cpu0.memDep0.conflictingStores            3314                       # Number of conflicting stores.
system.cpu0.iq.iqInstsAdded                   6316066                       # Number of instructions added to the IQ (excludes non-spec)
system.cpu0.iq.iqNonSpecInstsAdded               3254                       # Number of non-speculative instructions added to the IQ
system.cpu0.iq.iqInstsIssued                  4511193                       # Number of instructions issued
system.cpu0.iq.iqSquashedInstsIssued             5074                       # Number of squashed instructions issued
system.cpu0.iq.iqSquashedInstsExamined        4026401                       # Number of squashed instructions iterated over during squash; mainly for profiling
system.cpu0.iq.iqSquashedOperandsExamined      8323288                       # Number of squashed operands that are examined and possibly removed from graph
system.cpu0.iq.iqSquashedNonSpecRemoved          3254                       # Number of squashed non-spec instructions that were removed
system.cpu0.iq.issued_per_cycle::samples     30449342                       # Number of insts issued each cycle
system.cpu0.iq.issued_per_cycle::mean        0.148154                       # Number of insts issued each cycle
system.cpu0.iq.issued_per_cycle::stdev       0.696650                       # Number of insts issued each cycle
system.cpu0.iq.issued_per_cycle::underflows            0      0.00%      0.00% # Number of insts issued each cycle
system.cpu0.iq.issued_per_cycle::0           28560723     93.80%     93.80% # Number of insts issued each cycle
system.cpu0.iq.issued_per_cycle::1             768495      2.52%     96.32% # Number of insts issued each cycle
system.cpu0.iq.issued_per_cycle::2             401235      1.32%     97.64% # Number of insts issued each cycle
system.cpu0.iq.issued_per_cycle::3             269447      0.88%     98.52% # Number of insts issued each cycle
system.cpu0.iq.issued_per_cycle::4             271091      0.89%     99.41% # Number of insts issued each cycle
system.cpu0.iq.issued_per_cycle::5              75628      0.25%     99.66% # Number of insts issued each cycle
system.cpu0.iq.issued_per_cycle::6              65605      0.22%     99.88% # Number of insts issued each cycle
system.cpu0.iq.issued_per_cycle::7              21191      0.07%     99.95% # Number of insts issued each cycle
system.cpu0.iq.issued_per_cycle::8              15927      0.05%    100.00% # Number of insts issued each cycle
system.cpu0.iq.issued_per_cycle::overflows            0      0.00%    100.00% # Number of insts issued each cycle
system.cpu0.iq.issued_per_cycle::min_value            0                       # Number of insts issued each cycle
system.cpu0.iq.issued_per_cycle::max_value            8                       # Number of insts issued each cycle
system.cpu0.iq.issued_per_cycle::total       30449342                       # Number of insts issued each cycle
system.cpu0.iq.fu_full::No_OpClass                  0      0.00%      0.00% # attempts to use FU when none available
system.cpu0.iq.fu_full::IntAlu                   8111     62.87%     62.87% # attempts to use FU when none available
system.cpu0.iq.fu_full::IntMult                     0      0.00%     62.87% # attempts to use FU when none available
system.cpu0.iq.fu_full::IntDiv                      0      0.00%     62.87% # attempts to use FU when none available
system.cpu0.iq.fu_full::FloatAdd                  863      6.69%     69.56% # attempts to use FU when none available
system.cpu0.iq.fu_full::FloatCmp                    0      0.00%     69.56% # attempts to use FU when none available
system.cpu0.iq.fu_full::FloatCvt                    0      0.00%     69.56% # attempts to use FU when none available
system.cpu0.iq.fu_full::FloatMult                   0      0.00%     69.56% # attempts to use FU when none available
system.cpu0.iq.fu_full::FloatMultAcc                0      0.00%     69.56% # attempts to use FU when none available
system.cpu0.iq.fu_full::FloatDiv                    0      0.00%     69.56% # attempts to use FU when none available
system.cpu0.iq.fu_full::FloatMisc                   0      0.00%     69.56% # attempts to use FU when none available
system.cpu0.iq.fu_full::FloatSqrt                   0      0.00%     69.56% # attempts to use FU when none available
system.cpu0.iq.fu_full::SimdAdd                     0      0.00%     69.56% # attempts to use FU when none available
system.cpu0.iq.fu_full::SimdAddAcc                  0      0.00%     69.56% # attempts to use FU when none available
system.cpu0.iq.fu_full::SimdAlu                     0      0.00%     69.56% # attempts to use FU when none available
system.cpu0.iq.fu_full::SimdCmp                     0      0.00%     69.56% # attempts to use FU when none available
system.cpu0.iq.fu_full::SimdCvt                     0      0.00%     69.56% # attempts to use FU when none available
system.cpu0.iq.fu_full::SimdMisc                    0      0.00%     69.56% # attempts to use FU when none available
system.cpu0.iq.fu_full::SimdMult                    0      0.00%     69.56% # attempts to use FU when none available
system.cpu0.iq.fu_full::SimdMultAcc                 0      0.00%     69.56% # attempts to use FU when none available
system.cpu0.iq.fu_full::SimdShift                   0      0.00%     69.56% # attempts to use FU when none available
system.cpu0.iq.fu_full::SimdShiftAcc                0      0.00%     69.56% # attempts to use FU when none available
system.cpu0.iq.fu_full::SimdSqrt                    0      0.00%     69.56% # attempts to use FU when none available
system.cpu0.iq.fu_full::SimdFloatAdd                0      0.00%     69.56% # attempts to use FU when none available
system.cpu0.iq.fu_full::SimdFloatAlu                0      0.00%     69.56% # attempts to use FU when none available
system.cpu0.iq.fu_full::SimdFloatCmp                0      0.00%     69.56% # attempts to use FU when none available
system.cpu0.iq.fu_full::SimdFloatCvt                0      0.00%     69.56% # attempts to use FU when none available
system.cpu0.iq.fu_full::SimdFloatDiv                0      0.00%     69.56% # attempts to use FU when none available
system.cpu0.iq.fu_full::SimdFloatMisc               0      0.00%     69.56% # attempts to use FU when none available
system.cpu0.iq.fu_full::SimdFloatMult               0      0.00%     69.56% # attempts to use FU when none available
system.cpu0.iq.fu_full::SimdFloatMultAcc            0      0.00%     69.56% # attempts to use FU when none available
system.cpu0.iq.fu_full::SimdFloatSqrt               0      0.00%     69.56% # attempts to use FU when none available
system.cpu0.iq.fu_full::MemRead                  3572     27.69%     97.24% # attempts to use FU when none available
system.cpu0.iq.fu_full::MemWrite                  204      1.58%     98.82% # attempts to use FU when none available
system.cpu0.iq.fu_full::FloatMemRead              118      0.91%     99.74% # attempts to use FU when none available
system.cpu0.iq.fu_full::FloatMemWrite              34      0.26%    100.00% # attempts to use FU when none available
system.cpu0.iq.fu_full::IprAccess                   0      0.00%    100.00% # attempts to use FU when none available
system.cpu0.iq.fu_full::InstPrefetch                0      0.00%    100.00% # attempts to use FU when none available
system.cpu0.iq.FU_type_0::No_OpClass            16106      0.36%      0.36% # Type of FU issued
system.cpu0.iq.FU_type_0::IntAlu              3716886     82.39%     82.75% # Type of FU issued
system.cpu0.iq.FU_type_0::IntMult                 742      0.02%     82.77% # Type of FU issued
system.cpu0.iq.FU_type_0::IntDiv                 7205      0.16%     82.93% # Type of FU issued
system.cpu0.iq.FU_type_0::FloatAdd              10672      0.24%     83.16% # Type of FU issued
system.cpu0.iq.FU_type_0::FloatCmp                  0      0.00%     83.16% # Type of FU issued
system.cpu0.iq.FU_type_0::FloatCvt                  0      0.00%     83.16% # Type of FU issued
system.cpu0.iq.FU_type_0::FloatMult                 0      0.00%     83.16% # Type of FU issued
system.cpu0.iq.FU_type_0::FloatMultAcc              0      0.00%     83.16% # Type of FU issued
system.cpu0.iq.FU_type_0::FloatDiv                  0      0.00%     83.16% # Type of FU issued
system.cpu0.iq.FU_type_0::FloatMisc                 0      0.00%     83.16% # Type of FU issued
system.cpu0.iq.FU_type_0::FloatSqrt                 0      0.00%     83.16% # Type of FU issued
system.cpu0.iq.FU_type_0::SimdAdd                   0      0.00%     83.16% # Type of FU issued
system.cpu0.iq.FU_type_0::SimdAddAcc                0      0.00%     83.16% # Type of FU issued
system.cpu0.iq.FU_type_0::SimdAlu                   0      0.00%     83.16% # Type of FU issued
system.cpu0.iq.FU_type_0::SimdCmp                   0      0.00%     83.16% # Type of FU issued
system.cpu0.iq.FU_type_0::SimdCvt                   0      0.00%     83.16% # Type of FU issued
system.cpu0.iq.FU_type_0::SimdMisc                  0      0.00%     83.16% # Type of FU issued
system.cpu0.iq.FU_type_0::SimdMult                  0      0.00%     83.16% # Type of FU issued
system.cpu0.iq.FU_type_0::SimdMultAcc               0      0.00%     83.16% # Type of FU issued
system.cpu0.iq.FU_type_0::SimdShift                 0      0.00%     83.16% # Type of FU issued
system.cpu0.iq.FU_type_0::SimdShiftAcc              0      0.00%     83.16% # Type of FU issued
system.cpu0.iq.FU_type_0::SimdSqrt                  0      0.00%     83.16% # Type of FU issued
system.cpu0.iq.FU_type_0::SimdFloatAdd              0      0.00%     83.16% # Type of FU issued
system.cpu0.iq.FU_type_0::SimdFloatAlu              0      0.00%     83.16% # Type of FU issued
system.cpu0.iq.FU_type_0::SimdFloatCmp              0      0.00%     83.16% # Type of FU issued
system.cpu0.iq.FU_type_0::SimdFloatCvt              0      0.00%     83.16% # Type of FU issued
system.cpu0.iq.FU_type_0::SimdFloatDiv              0      0.00%     83.16% # Type of FU issued
system.cpu0.iq.FU_type_0::SimdFloatMisc             0      0.00%     83.16% # Type of FU issued
system.cpu0.iq.FU_type_0::SimdFloatMult             0      0.00%     83.16% # Type of FU issued
system.cpu0.iq.FU_type_0::SimdFloatMultAcc            0      0.00%     83.16% # Type of FU issued
system.cpu0.iq.FU_type_0::SimdFloatSqrt             0      0.00%     83.16% # Type of FU issued
system.cpu0.iq.FU_type_0::MemRead              713869     15.82%     98.99% # Type of FU issued
system.cpu0.iq.FU_type_0::MemWrite              43457      0.96%     99.95% # Type of FU issued
system.cpu0.iq.FU_type_0::FloatMemRead           2121      0.05%    100.00% # Type of FU issued
system.cpu0.iq.FU_type_0::FloatMemWrite           135      0.00%    100.00% # Type of FU issued
system.cpu0.iq.FU_type_0::IprAccess                 0      0.00%    100.00% # Type of FU issued
system.cpu0.iq.FU_type_0::InstPrefetch              0      0.00%    100.00% # Type of FU issued
system.cpu0.iq.FU_type_0::total               4511193                       # Type of FU issued
system.cpu0.iq.rate                          0.147740                       # Inst issue rate
system.cpu0.iq.fu_busy_cnt                      12902                       # FU busy when requested
system.cpu0.iq.fu_busy_rate                  0.002860                       # FU busy rate (busy events/executed inst)
system.cpu0.iq.int_inst_queue_reads          39462653                       # Number of integer instruction queue reads
system.cpu0.iq.int_inst_queue_writes         10319313                       # Number of integer instruction queue writes
system.cpu0.iq.int_inst_queue_wakeup_accesses      4330776                       # Number of integer instruction queue wakeup accesses
system.cpu0.iq.fp_inst_queue_reads              27054                       # Number of floating instruction queue reads
system.cpu0.iq.fp_inst_queue_writes             26412                       # Number of floating instruction queue writes
system.cpu0.iq.fp_inst_queue_wakeup_accesses        11604                       # Number of floating instruction queue wakeup accesses
system.cpu0.iq.vec_inst_queue_reads                 0                       # Number of vector instruction queue reads
system.cpu0.iq.vec_inst_queue_writes                0                       # Number of vector instruction queue writes
system.cpu0.iq.vec_inst_queue_wakeup_accesses            0                       # Number of vector instruction queue wakeup accesses
system.cpu0.iq.int_alu_accesses               4494035                       # Number of integer alu accesses
system.cpu0.iq.fp_alu_accesses                  13954                       # Number of floating point alu accesses
system.cpu0.iq.vec_alu_accesses                     0                       # Number of vector alu accesses
system.cpu0.iew.lsq.thread0.forwLoads            3382                       # Number of loads that had data forwarded from stores
system.cpu0.iew.lsq.thread0.invAddrLoads            0                       # Number of loads ignored due to an invalid address
system.cpu0.iew.lsq.thread0.squashedLoads       771534                       # Number of loads squashed
system.cpu0.iew.lsq.thread0.ignoredResponses          109                       # Number of memory responses ignored because the instruction is squashed
system.cpu0.iew.lsq.thread0.memOrderViolation            5                       # Number of memory ordering violations
system.cpu0.iew.lsq.thread0.squashedStores        38318                       # Number of stores squashed
system.cpu0.iew.lsq.thread0.invAddrSwpfs            0                       # Number of software prefetches ignored due to an invalid address
system.cpu0.iew.lsq.thread0.blockedLoads            0                       # Number of blocked loads due to partial load-store forwarding
system.cpu0.iew.lsq.thread0.rescheduledLoads           21                       # Number of loads that were rescheduled
system.cpu0.iew.lsq.thread0.cacheBlocked         1418                       # Number of times an access to memory failed due to the cache being blocked
system.cpu0.iew.iewIdleCycles                       0                       # Number of cycles IEW is idle
system.cpu0.iew.iewSquashCycles                 62917                       # Number of cycles IEW is squashing
system.cpu0.iew.iewBlockCycles               25489554                       # Number of cycles IEW is blocking
system.cpu0.iew.iewUnblockCycles               276034                       # Number of cycles IEW is unblocking
system.cpu0.iew.iewDispatchedInsts            6319320                       # Number of instructions dispatched to IQ
system.cpu0.iew.iewDispSquashedInsts             4515                       # Number of squashed instructions skipped by dispatch
system.cpu0.iew.iewDispLoadInsts              1210133                       # Number of dispatched load instructions
system.cpu0.iew.iewDispStoreInsts               58692                       # Number of dispatched store instructions
system.cpu0.iew.iewDispNonSpecInsts              1215                       # Number of dispatched non-speculative instructions
system.cpu0.iew.iewIQFullEvents                 17465                       # Number of times the IQ has become full, causing a stall
system.cpu0.iew.iewLSQFullEvents                76740                       # Number of times the LSQ has become full, causing a stall
system.cpu0.iew.memOrderViolationEvents             5                       # Number of memory order violations
system.cpu0.iew.predictedTakenIncorrect         33077                       # Number of branches that were predicted taken incorrectly
system.cpu0.iew.predictedNotTakenIncorrect        35954                       # Number of branches that were predicted not taken incorrectly
system.cpu0.iew.branchMispredicts               69031                       # Number of branch mispredicts detected at execute
system.cpu0.iew.iewExecutedInsts              4434841                       # Number of executed instructions
system.cpu0.iew.iewExecLoadInsts               685292                       # Number of load instructions executed
system.cpu0.iew.iewExecSquashedInsts            76355                       # Number of squashed instructions skipped in execute
system.cpu0.iew.exec_swp                            0                       # number of swp insts executed
system.cpu0.iew.exec_nop                            0                       # number of nop insts executed
system.cpu0.iew.exec_refs                      725724                       # number of memory reference insts executed
system.cpu0.iew.exec_branches                  532634                       # Number of branches executed
system.cpu0.iew.exec_stores                     40432                       # Number of stores executed
system.cpu0.iew.exec_rate                    0.145239                       # Inst execution rate
system.cpu0.iew.wb_sent                       4356949                       # cumulative count of insts sent to commit
system.cpu0.iew.wb_count                      4342380                       # cumulative count of insts written-back
system.cpu0.iew.wb_producers                  3185053                       # num instructions producing a value
system.cpu0.iew.wb_consumers                  5030985                       # num instructions consuming a value
system.cpu0.iew.wb_rate                      0.142211                       # insts written-back per cycle
system.cpu0.iew.wb_fanout                    0.633087                       # average fanout of values written-back
system.cpu0.commit.commitSquashedInsts        4027188                       # The number of squashed insts skipped by commit
system.cpu0.commit.branchMispredicts            62914                       # The number of times a branch was mispredicted
system.cpu0.commit.committed_per_cycle::samples     29877079                       # Number of insts commited each cycle
system.cpu0.commit.committed_per_cycle::mean     0.076743                       # Number of insts commited each cycle
system.cpu0.commit.committed_per_cycle::stdev     0.502085                       # Number of insts commited each cycle
system.cpu0.commit.committed_per_cycle::underflows            0      0.00%      0.00% # Number of insts commited each cycle
system.cpu0.commit.committed_per_cycle::0     28858463     96.59%     96.59% # Number of insts commited each cycle
system.cpu0.commit.committed_per_cycle::1       476963      1.60%     98.19% # Number of insts commited each cycle
system.cpu0.commit.committed_per_cycle::2       111468      0.37%     98.56% # Number of insts commited each cycle
system.cpu0.commit.committed_per_cycle::3       308337      1.03%     99.59% # Number of insts commited each cycle
system.cpu0.commit.committed_per_cycle::4        53854      0.18%     99.77% # Number of insts commited each cycle
system.cpu0.commit.committed_per_cycle::5        26505      0.09%     99.86% # Number of insts commited each cycle
system.cpu0.commit.committed_per_cycle::6         4285      0.01%     99.88% # Number of insts commited each cycle
system.cpu0.commit.committed_per_cycle::7         3322      0.01%     99.89% # Number of insts commited each cycle
system.cpu0.commit.committed_per_cycle::8        33882      0.11%    100.00% # Number of insts commited each cycle
system.cpu0.commit.committed_per_cycle::overflows            0      0.00%    100.00% # Number of insts commited each cycle
system.cpu0.commit.committed_per_cycle::min_value            0                       # Number of insts commited each cycle
system.cpu0.commit.committed_per_cycle::max_value            8                       # Number of insts commited each cycle
system.cpu0.commit.committed_per_cycle::total     29877079                       # Number of insts commited each cycle
system.cpu0.commit.committedInsts             1147844                       # Number of instructions committed
system.cpu0.commit.committedOps               2292871                       # Number of ops (including micro ops) committed
system.cpu0.commit.swp_count                        0                       # Number of s/w prefetches committed
system.cpu0.commit.refs                        458961                       # Number of memory references committed
system.cpu0.commit.loads                       438587                       # Number of loads committed
system.cpu0.commit.membars                          0                       # Number of memory barriers committed
system.cpu0.commit.branches                    417381                       # Number of branches committed
system.cpu0.commit.vec_insts                        0                       # Number of committed Vector instructions.
system.cpu0.commit.fp_insts                      8208                       # Number of committed floating point instructions.
system.cpu0.commit.int_insts                  2284592                       # Number of committed integer instructions.
system.cpu0.commit.function_calls                3600                       # Number of function calls committed.
system.cpu0.commit.op_class_0::No_OpClass         2471      0.11%      0.11% # Class of committed instruction
system.cpu0.commit.op_class_0::IntAlu         1818291     79.30%     79.41% # Class of committed instruction
system.cpu0.commit.op_class_0::IntMult            144      0.01%     79.42% # Class of committed instruction
system.cpu0.commit.op_class_0::IntDiv            5996      0.26%     79.68% # Class of committed instruction
system.cpu0.commit.op_class_0::FloatAdd          7008      0.31%     79.98% # Class of committed instruction
system.cpu0.commit.op_class_0::FloatCmp             0      0.00%     79.98% # Class of committed instruction
system.cpu0.commit.op_class_0::FloatCvt             0      0.00%     79.98% # Class of committed instruction
system.cpu0.commit.op_class_0::FloatMult            0      0.00%     79.98% # Class of committed instruction
system.cpu0.commit.op_class_0::FloatMultAcc            0      0.00%     79.98% # Class of committed instruction
system.cpu0.commit.op_class_0::FloatDiv             0      0.00%     79.98% # Class of committed instruction
system.cpu0.commit.op_class_0::FloatMisc            0      0.00%     79.98% # Class of committed instruction
system.cpu0.commit.op_class_0::FloatSqrt            0      0.00%     79.98% # Class of committed instruction
system.cpu0.commit.op_class_0::SimdAdd              0      0.00%     79.98% # Class of committed instruction
system.cpu0.commit.op_class_0::SimdAddAcc            0      0.00%     79.98% # Class of committed instruction
system.cpu0.commit.op_class_0::SimdAlu              0      0.00%     79.98% # Class of committed instruction
system.cpu0.commit.op_class_0::SimdCmp              0      0.00%     79.98% # Class of committed instruction
system.cpu0.commit.op_class_0::SimdCvt              0      0.00%     79.98% # Class of committed instruction
system.cpu0.commit.op_class_0::SimdMisc             0      0.00%     79.98% # Class of committed instruction
system.cpu0.commit.op_class_0::SimdMult             0      0.00%     79.98% # Class of committed instruction
system.cpu0.commit.op_class_0::SimdMultAcc            0      0.00%     79.98% # Class of committed instruction
system.cpu0.commit.op_class_0::SimdShift            0      0.00%     79.98% # Class of committed instruction
system.cpu0.commit.op_class_0::SimdShiftAcc            0      0.00%     79.98% # Class of committed instruction
system.cpu0.commit.op_class_0::SimdSqrt             0      0.00%     79.98% # Class of committed instruction
system.cpu0.commit.op_class_0::SimdFloatAdd            0      0.00%     79.98% # Class of committed instruction
system.cpu0.commit.op_class_0::SimdFloatAlu            0      0.00%     79.98% # Class of committed instruction
system.cpu0.commit.op_class_0::SimdFloatCmp            0      0.00%     79.98% # Class of committed instruction
system.cpu0.commit.op_class_0::SimdFloatCvt            0      0.00%     79.98% # Class of committed instruction
system.cpu0.commit.op_class_0::SimdFloatDiv            0      0.00%     79.98% # Class of committed instruction
system.cpu0.commit.op_class_0::SimdFloatMisc            0      0.00%     79.98% # Class of committed instruction
system.cpu0.commit.op_class_0::SimdFloatMult            0      0.00%     79.98% # Class of committed instruction
system.cpu0.commit.op_class_0::SimdFloatMultAcc            0      0.00%     79.98% # Class of committed instruction
system.cpu0.commit.op_class_0::SimdFloatSqrt            0      0.00%     79.98% # Class of committed instruction
system.cpu0.commit.op_class_0::MemRead         437387     19.08%     99.06% # Class of committed instruction
system.cpu0.commit.op_class_0::MemWrite         20374      0.89%     99.95% # Class of committed instruction
system.cpu0.commit.op_class_0::FloatMemRead         1200      0.05%    100.00% # Class of committed instruction
system.cpu0.commit.op_class_0::FloatMemWrite            0      0.00%    100.00% # Class of committed instruction
system.cpu0.commit.op_class_0::IprAccess            0      0.00%    100.00% # Class of committed instruction
system.cpu0.commit.op_class_0::InstPrefetch            0      0.00%    100.00% # Class of committed instruction
system.cpu0.commit.op_class_0::total          2292871                       # Class of committed instruction
system.cpu0.commit.bw_lim_events                33882                       # number cycles where commit BW limit reached
system.cpu0.rob.rob_reads                    36163256                       # The number of ROB reads
system.cpu0.rob.rob_writes                   13213621                       # The number of ROB writes
system.cpu0.timesIdled                            635                       # Number of times that the entire CPU went into an idle state and unscheduled itself
system.cpu0.idleCycles                          85346                       # Total number of cycles that the CPU has spent unscheduled due to idling
system.cpu0.committedInsts                    1147844                       # Number of Instructions Simulated
system.cpu0.committedOps                      2292871                       # Number of Ops (including micro ops) Simulated
system.cpu0.cpi                             26.601775                       # CPI: Cycles Per Instruction
system.cpu0.cpi_total                       26.601775                       # CPI: Total CPI of All Threads
system.cpu0.ipc                              0.037591                       # IPC: Instructions Per Cycle
system.cpu0.ipc_total                        0.037591                       # IPC: Total IPC of All Threads
system.cpu0.int_regfile_reads                 4398349                       # number of integer regfile reads
system.cpu0.int_regfile_writes                3772710                       # number of integer regfile writes
system.cpu0.fp_regfile_reads                    20678                       # number of floating regfile reads
system.cpu0.fp_regfile_writes                   10270                       # number of floating regfile writes
system.cpu0.cc_regfile_reads                  2798631                       # number of cc regfile reads
system.cpu0.cc_regfile_writes                 1201303                       # number of cc regfile writes
system.cpu0.misc_regfile_reads                2345502                       # number of misc regfile reads
system.cpu0.dcache.tags.pwrStateResidencyTicks::UNDEFINED  15267344125                       # Cumulative time (in ticks) in various power states
system.cpu0.dcache.tags.replacements           233095                       # number of replacements
system.cpu0.dcache.tags.tagsinuse                1024                       # Cycle average of tags in use
system.cpu0.dcache.tags.total_refs             286300                       # Total number of references to valid blocks.
system.cpu0.dcache.tags.sampled_refs           233095                       # Sample count of references to valid blocks.
system.cpu0.dcache.tags.avg_refs             1.228255                       # Average number of references to valid blocks.
system.cpu0.dcache.tags.warmup_cycle                0                       # Cycle when the warmup percentage was hit.
system.cpu0.dcache.tags.occ_blocks::cpu0.data         1024                       # Average occupied blocks per requestor
system.cpu0.dcache.tags.occ_percent::cpu0.data            1                       # Average percentage of cache occupancy
system.cpu0.dcache.tags.occ_percent::total            1                       # Average percentage of cache occupancy
system.cpu0.dcache.tags.occ_task_id_blocks::1024         1024                       # Occupied blocks per task id
system.cpu0.dcache.tags.age_task_id_blocks_1024::0          137                       # Occupied blocks per task id
system.cpu0.dcache.tags.age_task_id_blocks_1024::1          796                       # Occupied blocks per task id
system.cpu0.dcache.tags.age_task_id_blocks_1024::2           91                       # Occupied blocks per task id
system.cpu0.dcache.tags.occ_task_id_percent::1024            1                       # Percentage of cache occupancy per task id
system.cpu0.dcache.tags.tag_accesses          3027623                       # Number of tag accesses
system.cpu0.dcache.tags.data_accesses         3027623                       # Number of data accesses
system.cpu0.dcache.pwrStateResidencyTicks::UNDEFINED  15267344125                       # Cumulative time (in ticks) in various power states
system.cpu0.dcache.ReadReq_hits::cpu0.data       264095                       # number of ReadReq hits
system.cpu0.dcache.ReadReq_hits::total         264095                       # number of ReadReq hits
system.cpu0.dcache.WriteReq_hits::cpu0.data        19553                       # number of WriteReq hits
system.cpu0.dcache.WriteReq_hits::total         19553                       # number of WriteReq hits
system.cpu0.dcache.demand_hits::cpu0.data       283648                       # number of demand (read+write) hits
system.cpu0.dcache.demand_hits::total          283648                       # number of demand (read+write) hits
system.cpu0.dcache.overall_hits::cpu0.data       283648                       # number of overall hits
system.cpu0.dcache.overall_hits::total         283648                       # number of overall hits
system.cpu0.dcache.ReadReq_misses::cpu0.data       414163                       # number of ReadReq misses
system.cpu0.dcache.ReadReq_misses::total       414163                       # number of ReadReq misses
system.cpu0.dcache.WriteReq_misses::cpu0.data          821                       # number of WriteReq misses
system.cpu0.dcache.WriteReq_misses::total          821                       # number of WriteReq misses
system.cpu0.dcache.demand_misses::cpu0.data       414984                       # number of demand (read+write) misses
system.cpu0.dcache.demand_misses::total        414984                       # number of demand (read+write) misses
system.cpu0.dcache.overall_misses::cpu0.data       414984                       # number of overall misses
system.cpu0.dcache.overall_misses::total       414984                       # number of overall misses
system.cpu0.dcache.ReadReq_miss_latency::cpu0.data  34833478000                       # number of ReadReq miss cycles
system.cpu0.dcache.ReadReq_miss_latency::total  34833478000                       # number of ReadReq miss cycles
system.cpu0.dcache.WriteReq_miss_latency::cpu0.data     29794000                       # number of WriteReq miss cycles
system.cpu0.dcache.WriteReq_miss_latency::total     29794000                       # number of WriteReq miss cycles
system.cpu0.dcache.demand_miss_latency::cpu0.data  34863272000                       # number of demand (read+write) miss cycles
system.cpu0.dcache.demand_miss_latency::total  34863272000                       # number of demand (read+write) miss cycles
system.cpu0.dcache.overall_miss_latency::cpu0.data  34863272000                       # number of overall miss cycles
system.cpu0.dcache.overall_miss_latency::total  34863272000                       # number of overall miss cycles
system.cpu0.dcache.ReadReq_accesses::cpu0.data       678258                       # number of ReadReq accesses(hits+misses)
system.cpu0.dcache.ReadReq_accesses::total       678258                       # number of ReadReq accesses(hits+misses)
system.cpu0.dcache.WriteReq_accesses::cpu0.data        20374                       # number of WriteReq accesses(hits+misses)
system.cpu0.dcache.WriteReq_accesses::total        20374                       # number of WriteReq accesses(hits+misses)
system.cpu0.dcache.demand_accesses::cpu0.data       698632                       # number of demand (read+write) accesses
system.cpu0.dcache.demand_accesses::total       698632                       # number of demand (read+write) accesses
system.cpu0.dcache.overall_accesses::cpu0.data       698632                       # number of overall (read+write) accesses
system.cpu0.dcache.overall_accesses::total       698632                       # number of overall (read+write) accesses
system.cpu0.dcache.ReadReq_miss_rate::cpu0.data     0.610628                       # miss rate for ReadReq accesses
system.cpu0.dcache.ReadReq_miss_rate::total     0.610628                       # miss rate for ReadReq accesses
system.cpu0.dcache.WriteReq_miss_rate::cpu0.data     0.040296                       # miss rate for WriteReq accesses
system.cpu0.dcache.WriteReq_miss_rate::total     0.040296                       # miss rate for WriteReq accesses
system.cpu0.dcache.demand_miss_rate::cpu0.data     0.593995                       # miss rate for demand accesses
system.cpu0.dcache.demand_miss_rate::total     0.593995                       # miss rate for demand accesses
system.cpu0.dcache.overall_miss_rate::cpu0.data     0.593995                       # miss rate for overall accesses
system.cpu0.dcache.overall_miss_rate::total     0.593995                       # miss rate for overall accesses
system.cpu0.dcache.ReadReq_avg_miss_latency::cpu0.data 84105.721660                       # average ReadReq miss latency
system.cpu0.dcache.ReadReq_avg_miss_latency::total 84105.721660                       # average ReadReq miss latency
system.cpu0.dcache.WriteReq_avg_miss_latency::cpu0.data 36289.890378                       # average WriteReq miss latency
system.cpu0.dcache.WriteReq_avg_miss_latency::total 36289.890378                       # average WriteReq miss latency
system.cpu0.dcache.demand_avg_miss_latency::cpu0.data 84011.123320                       # average overall miss latency
system.cpu0.dcache.demand_avg_miss_latency::total 84011.123320                       # average overall miss latency
[...]
system.l2.tags.tag_accesses                   3924400                       # Number of tag accesses
system.l2.tags.data_accesses                  3924400                       # Number of data accesses
system.l2.pwrStateResidencyTicks::UNDEFINED  15267344125                       # Cumulative time (in ticks) in various power states
system.l2.WritebackDirty_hits::writebacks         2035                       # number of WritebackDirty hits
system.l2.WritebackDirty_hits::total             2035                       # number of WritebackDirty hits
system.l2.ReadExReq_hits::cpu0.data               619                       # number of ReadExReq hits
system.l2.ReadExReq_hits::total                   619                       # number of ReadExReq hits
system.l2.ReadSharedReq_hits::cpu0.data         35034                       # number of ReadSharedReq hits
system.l2.ReadSharedReq_hits::total             35034                       # number of ReadSharedReq hits
system.l2.demand_hits::cpu0.data                35653                       # number of demand (read+write) hits
system.l2.demand_hits::total                    35653                       # number of demand (read+write) hits
system.l2.overall_hits::cpu0.data               35653                       # number of overall hits
system.l2.overall_hits::total                   35653                       # number of overall hits
system.l2.ReadExReq_misses::cpu0.data             197                       # number of ReadExReq misses
system.l2.ReadExReq_misses::total                 197                       # number of ReadExReq misses
system.l2.ReadSharedReq_misses::cpu0.data       197244                       # number of ReadSharedReq misses
system.l2.ReadSharedReq_misses::total          197244                       # number of ReadSharedReq misses
system.l2.demand_misses::cpu0.data             197441                       # number of demand (read+write) misses
system.l2.demand_misses::total                 197441                       # number of demand (read+write) misses
system.l2.overall_misses::cpu0.data            197441                       # number of overall misses
system.l2.overall_misses::total                197441                       # number of overall misses
system.l2.ReadExReq_miss_latency::cpu0.data     20867500                       # number of ReadExReq miss cycles
system.l2.ReadExReq_miss_latency::total      20867500                       # number of ReadExReq miss cycles
system.l2.ReadSharedReq_miss_latency::cpu0.data  18676607500                       # number of ReadSharedReq miss cycles
system.l2.ReadSharedReq_miss_latency::total  18676607500                       # number of ReadSharedReq miss cycles
system.l2.demand_miss_latency::cpu0.data  18697475000                       # number of demand (read+write) miss cycles
system.l2.demand_miss_latency::total      18697475000                       # number of demand (read+write) miss cycles
system.l2.overall_miss_latency::cpu0.data  18697475000                       # number of overall miss cycles
system.l2.overall_miss_latency::total     18697475000                       # number of overall miss cycles
system.l2.WritebackDirty_accesses::writebacks         2035                       # number of WritebackDirty accesses(hits+misses)
system.l2.WritebackDirty_accesses::total         2035                       # number of WritebackDirty accesses(hits+misses)
system.l2.ReadExReq_accesses::cpu0.data           816                       # number of ReadExReq accesses(hits+misses)
system.l2.ReadExReq_accesses::total               816                       # number of ReadExReq accesses(hits+misses)
system.l2.ReadSharedReq_accesses::cpu0.data       232278                       # number of ReadSharedReq accesses(hits+misses)
system.l2.ReadSharedReq_accesses::total        232278                       # number of ReadSharedReq accesses(hits+misses)
system.l2.demand_accesses::cpu0.data           233094                       # number of demand (read+write) accesses
system.l2.demand_accesses::total               233094                       # number of demand (read+write) accesses
system.l2.overall_accesses::cpu0.data          233094                       # number of overall (read+write) accesses
system.l2.overall_accesses::total              233094                       # number of overall (read+write) accesses
system.l2.ReadExReq_miss_rate::cpu0.data     0.241422                       # miss rate for ReadExReq accesses
system.l2.ReadExReq_miss_rate::total         0.241422                       # miss rate for ReadExReq accesses
system.l2.ReadSharedReq_miss_rate::cpu0.data     0.849172                       # miss rate for ReadSharedReq accesses
system.l2.ReadSharedReq_miss_rate::total     0.849172                       # miss rate for ReadSharedReq accesses
system.l2.demand_miss_rate::cpu0.data        0.847045                       # miss rate for demand accesses
system.l2.demand_miss_rate::total            0.847045                       # miss rate for demand accesses
system.l2.overall_miss_rate::cpu0.data       0.847045                       # miss rate for overall accesses
system.l2.overall_miss_rate::total           0.847045                       # miss rate for overall accesses
system.l2.ReadExReq_avg_miss_latency::cpu0.data 105926.395939                       # average ReadExReq miss latency
system.l2.ReadExReq_avg_miss_latency::total 105926.395939                       # average ReadExReq miss latency
system.l2.ReadSharedReq_avg_miss_latency::cpu0.data 94687.835878                       # average ReadSharedReq miss latency
system.l2.ReadSharedReq_avg_miss_latency::total 94687.835878                       # average ReadSharedReq miss latency
system.l2.demand_avg_miss_latency::cpu0.data 94699.049336                       # average overall miss latency
system.l2.demand_avg_miss_latency::total 94699.049336                       # average overall miss latency
system.l2.overall_avg_miss_latency::cpu0.data 94699.049336                       # average overall miss latency
system.l2.overall_avg_miss_latency::total 94699.049336                       # average overall miss latency
system.l2.blocked_cycles::no_mshrs                  0                       # number of cycles access was blocked
system.l2.blocked_cycles::no_targets                0                       # number of cycles access was blocked
system.l2.blocked::no_mshrs                         0                       # number of cycles access was blocked
system.l2.blocked::no_targets                       0                       # number of cycles access was blocked
system.l2.avg_blocked_cycles::no_mshrs            nan                       # average number of cycles each access was blocked
system.l2.avg_blocked_cycles::no_targets          nan                       # average number of cycles each access was blocked
system.l2.writebacks::writebacks                  315                       # number of writebacks
system.l2.writebacks::total                       315                       # number of writebacks
system.l2.ReadExReq_mshr_misses::cpu0.data          197                       # number of ReadExReq MSHR misses
system.l2.ReadExReq_mshr_misses::total            197                       # number of ReadExReq MSHR misses
system.l2.ReadSharedReq_mshr_misses::cpu0.data       197244                       # number of ReadSharedReq MSHR misses
system.l2.ReadSharedReq_mshr_misses::total       197244                       # number of ReadSharedReq MSHR misses
system.l2.demand_mshr_misses::cpu0.data        197441                       # number of demand (read+write) MSHR misses
system.l2.demand_mshr_misses::total            197441                       # number of demand (read+write) MSHR misses
system.l2.overall_mshr_misses::cpu0.data       197441                       # number of overall MSHR misses
system.l2.overall_mshr_misses::total           197441                       # number of overall MSHR misses
system.l2.ReadExReq_mshr_miss_latency::cpu0.data     18897500                       # number of ReadExReq MSHR miss cycles
system.l2.ReadExReq_mshr_miss_latency::total     18897500                       # number of ReadExReq MSHR miss cycles
system.l2.ReadSharedReq_mshr_miss_latency::cpu0.data  16704157500                       # number of ReadSharedReq MSHR miss cycles
system.l2.ReadSharedReq_mshr_miss_latency::total  16704157500                       # number of ReadSharedReq MSHR miss cycles
system.l2.demand_mshr_miss_latency::cpu0.data  16723055000                       # number of demand (read+write) MSHR miss cycles
system.l2.demand_mshr_miss_latency::total  16723055000                       # number of demand (read+write) MSHR miss cycles
system.l2.overall_mshr_miss_latency::cpu0.data  16723055000                       # number of overall MSHR miss cycles
system.l2.overall_mshr_miss_latency::total  16723055000                       # number of overall MSHR miss cycles
system.l2.ReadExReq_mshr_miss_rate::cpu0.data     0.241422                       # mshr miss rate for ReadExReq accesses
system.l2.ReadExReq_mshr_miss_rate::total     0.241422                       # mshr miss rate for ReadExReq accesses
system.l2.ReadSharedReq_mshr_miss_rate::cpu0.data     0.849172                       # mshr miss rate for ReadSharedReq accesses
system.l2.ReadSharedReq_mshr_miss_rate::total     0.849172                       # mshr miss rate for ReadSharedReq accesses
system.l2.demand_mshr_miss_rate::cpu0.data     0.847045                       # mshr miss rate for demand accesses
system.l2.demand_mshr_miss_rate::total       0.847045                       # mshr miss rate for demand accesses
system.l2.overall_mshr_miss_rate::cpu0.data     0.847045                       # mshr miss rate for overall accesses
system.l2.overall_mshr_miss_rate::total      0.847045                       # mshr miss rate for overall accesses
system.l2.ReadExReq_avg_mshr_miss_latency::cpu0.data 95926.395939                       # average ReadExReq mshr miss latency
system.l2.ReadExReq_avg_mshr_miss_latency::total 95926.395939                       # average ReadExReq mshr miss latency
system.l2.ReadSharedReq_avg_mshr_miss_latency::cpu0.data 84687.785180                       # average ReadSharedReq mshr miss latency
system.l2.ReadSharedReq_avg_mshr_miss_latency::total 84687.785180                       # average ReadSharedReq mshr miss latency
system.l2.demand_avg_mshr_miss_latency::cpu0.data 84698.998688                       # average overall mshr miss latency
system.l2.demand_avg_mshr_miss_latency::total 84698.998688                       # average overall mshr miss latency
system.l2.overall_avg_mshr_miss_latency::cpu0.data 84698.998688                       # average overall mshr miss latency
system.l2.overall_avg_mshr_miss_latency::total 84698.998688                       # average overall mshr miss latency
system.membus.snoop_filter.tot_requests        394877                       # Total number of requests made to the snoop filter.
system.membus.snoop_filter.hit_single_requests       197440                       # Number of requests hitting in the snoop filter with a single holder of the requested data.
system.membus.snoop_filter.hit_multi_requests            0                       # Number of requests hitting in the snoop filter with multiple (>1) holders of the requested data.
system.membus.snoop_filter.tot_snoops               0                       # Total number of snoops made to the snoop filter.
system.membus.snoop_filter.hit_single_snoops            0                       # Number of snoops hitting in the snoop filter with a single holder of the requested data.
system.membus.snoop_filter.hit_multi_snoops            0                       # Number of snoops hitting in the snoop filter with multiple (>1) holders of the requested data.
system.membus.pwrStateResidencyTicks::UNDEFINED  15267344125                       # Cumulative time (in ticks) in various power states
system.membus.trans_dist::ReadResp             197245                       # Transaction distribution
system.membus.trans_dist::WritebackDirty          315                       # Transaction distribution
system.membus.trans_dist::CleanEvict           197120                       # Transaction distribution
system.membus.trans_dist::ReadExReq               197                       # Transaction distribution
system.membus.trans_dist::ReadExResp              197                       # Transaction distribution
system.membus.trans_dist::ReadSharedReq        197245                       # Transaction distribution
system.membus.pkt_count_system.l2.mem_side::system.mem_ctrls.port       592319                       # Packet count per connected master and slave (bytes)
system.membus.pkt_count_system.l2.mem_side::total       592319                       # Packet count per connected master and slave (bytes)
system.membus.pkt_count::total                 592319                       # Packet count per connected master and slave (bytes)
system.membus.pkt_size_system.l2.mem_side::system.mem_ctrls.port     12656448                       # Cumulative packet size per connected master and slave (bytes)
system.membus.pkt_size_system.l2.mem_side::total     12656448                       # Cumulative packet size per connected master and slave (bytes)
system.membus.pkt_size::total                12656448                       # Cumulative packet size per connected master and slave (bytes)
system.membus.snoops                                0                       # Total snoops (count)
system.membus.snoopTraffic                          0                       # Total snoop traffic (bytes)
system.membus.snoop_fanout::samples            197442                       # Request fanout histogram
system.membus.snoop_fanout::mean                    0                       # Request fanout histogram
system.membus.snoop_fanout::stdev                   0                       # Request fanout histogram
system.membus.snoop_fanout::underflows              0      0.00%      0.00% # Request fanout histogram
system.membus.snoop_fanout::0                  197442    100.00%    100.00% # Request fanout histogram
system.membus.snoop_fanout::1                       0      0.00%    100.00% # Request fanout histogram
system.membus.snoop_fanout::overflows               0      0.00%    100.00% # Request fanout histogram
system.membus.snoop_fanout::min_value               0                       # Request fanout histogram
system.membus.snoop_fanout::max_value               0                       # Request fanout histogram
system.membus.snoop_fanout::total              197442                       # Request fanout histogram
system.membus.reqLayer4.occupancy           465525500                       # Layer occupancy (ticks)
system.membus.reqLayer4.utilization               3.0                       # Layer utilization (%)
system.membus.respLayer1.occupancy         1066444750                       # Layer occupancy (ticks)
system.membus.respLayer1.utilization              7.0                       # Layer utilization (%)
system.tol2bus.snoop_filter.tot_requests       466189                       # Total number of requests made to the snoop filter.
system.tol2bus.snoop_filter.hit_single_requests       233095                       # Number of requests hitting in the snoop filter with a single holder of the requested data.
system.tol2bus.snoop_filter.hit_multi_requests          574                       # Number of requests hitting in the snoop filter with multiple (>1) holders of the requested data.
system.tol2bus.snoop_filter.tot_snoops             14                       # Total number of snoops made to the snoop filter.
system.tol2bus.snoop_filter.hit_single_snoops           14                       # Number of snoops hitting in the snoop filter with a single holder of the requested data.
system.tol2bus.snoop_filter.hit_multi_snoops            0                       # Number of snoops hitting in the snoop filter with multiple (>1) holders of the requested data.
system.tol2bus.pwrStateResidencyTicks::UNDEFINED  15267344125                       # Cumulative time (in ticks) in various power states
system.tol2bus.trans_dist::ReadResp            232279                       # Transaction distribution
system.tol2bus.trans_dist::WritebackDirty         2350                       # Transaction distribution
system.tol2bus.trans_dist::CleanEvict          428193                       # Transaction distribution
system.tol2bus.trans_dist::ReadExReq              816                       # Transaction distribution
system.tol2bus.trans_dist::ReadExResp             816                       # Transaction distribution
system.tol2bus.trans_dist::ReadSharedReq       232278                       # Transaction distribution
system.tol2bus.pkt_count_system.cpu0.dcache.mem_side::system.l2.cpu_side       699284                       # Packet count per connected master and slave (bytes)
system.tol2bus.pkt_count::total                699284                       # Packet count per connected master and slave (bytes)
system.tol2bus.pkt_size_system.cpu0.dcache.mem_side::system.l2.cpu_side     15048320                       # Cumulative packet size per connected master and slave (bytes)
system.tol2bus.pkt_size::total               15048320                       # Cumulative packet size per connected master and slave (bytes)
system.tol2bus.snoops                          197448                       # Total snoops (count)
system.tol2bus.snoopTraffic                     20160                       # Total snoop traffic (bytes)
system.tol2bus.snoop_fanout::samples           430542                       # Request fanout histogram
system.tol2bus.snoop_fanout::mean            0.001366                       # Request fanout histogram
system.tol2bus.snoop_fanout::stdev           0.036930                       # Request fanout histogram
system.tol2bus.snoop_fanout::underflows             0      0.00%      0.00% # Request fanout histogram
system.tol2bus.snoop_fanout::0                 429954     99.86%     99.86% # Request fanout histogram
system.tol2bus.snoop_fanout::1                    588      0.14%    100.00% # Request fanout histogram
system.tol2bus.snoop_fanout::2                      0      0.00%    100.00% # Request fanout histogram
system.tol2bus.snoop_fanout::3                      0      0.00%    100.00% # Request fanout histogram
system.tol2bus.snoop_fanout::4                      0      0.00%    100.00% # Request fanout histogram
system.tol2bus.snoop_fanout::5                      0      0.00%    100.00% # Request fanout histogram
system.tol2bus.snoop_fanout::6                      0      0.00%    100.00% # Request fanout histogram
system.tol2bus.snoop_fanout::7                      0      0.00%    100.00% # Request fanout histogram
system.tol2bus.snoop_fanout::8                      0      0.00%    100.00% # Request fanout histogram
system.tol2bus.snoop_fanout::overflows              0      0.00%    100.00% # Request fanout histogram
system.tol2bus.snoop_fanout::min_value              0                       # Request fanout histogram
system.tol2bus.snoop_fanout::max_value              1                       # Request fanout histogram
system.tol2bus.snoop_fanout::total             430542                       # Request fanout histogram
system.tol2bus.reqLayer0.occupancy          235129500                       # Layer occupancy (ticks)
system.tol2bus.reqLayer0.utilization              1.5                       # Layer utilization (%)
system.tol2bus.respLayer1.occupancy         349642500                       # Layer occupancy (ticks)
system.tol2bus.respLayer1.utilization             2.3                       # Layer utilization (%)

---------- End Simulation Statistics   ----------
