
---------- Begin Simulation Statistics ----------
sim_seconds                                  0.015267                       # Number of seconds simulated
sim_ticks                                 15267344125                       # Number of ticks simulated
final_tick                               4290123699125                       # Number of ticks from beginning of simulation (restored from checkpoints and never reset)
sim_freq                                 1000000000000                       # Frequency of simulated ticks
host_inst_rate                              124918382                       # Simulator instruction rate (inst/s)
host_op_rate                                231644039                       # Simulator op (including micro ops) rate (op/s)
host_tick_rate                              338589949                       # Simulator tick rate (ticks/s)
host_mem_usage                                1248940                       # Number of bytes of host memory used
host_seconds                                    45.09                       # Real time elapsed on the host
sim_insts                                  5632687046                       # Number of instructions simulated
sim_ops                                   10445049074                       # Number of ops (including micro ops) simulated
system.voltage_domain.voltage                       1                       # Voltage in Volts
system.clk_domain.clock                          1000                       # Clock period in ticks
system.mem_ctrls.pwrStateResidencyTicks::UNDEFINED  15267344125                       # Cumulative time (in ticks) in various power states
system.mem_ctrls.bytes_read::cpu0.inst            192                       # Number of bytes read from this memory
system.mem_ctrls.bytes_read::cpu0.data       12419328                       # Number of bytes read from this memory
system.mem_ctrls.bytes_read::total           12419520                       # Number of bytes read from this memory
system.mem_ctrls.bytes_inst_read::cpu0.inst          192                       # Number of instructions bytes read from this memory
system.mem_ctrls.bytes_inst_read::total           192                       # Number of instructions bytes read from this memory
system.mem_ctrls.bytes_written::writebacks        36544                       # Number of bytes written to this memory
system.mem_ctrls.bytes_written::total           36544                       # Number of bytes written to this memory
system.mem_ctrls.num_reads::cpu0.inst               3                       # Number of read requests responded to by this memory
system.mem_ctrls.num_reads::cpu0.data          194052                       # Number of read requests responded to by this memory
system.mem_ctrls.num_reads::total              194055                       # Number of read requests responded to by this memory
system.mem_ctrls.num_writes::writebacks           571                       # Number of write requests responded to by this memory
system.mem_ctrls.num_writes::total                571                       # Number of write requests responded to by this memory
system.mem_ctrls.bw_read::cpu0.inst             12576                       # Total read bandwidth from this memory (bytes/s)
system.mem_ctrls.bw_read::cpu0.data         813457003                       # Total read bandwidth from this memory (bytes/s)
system.mem_ctrls.bw_read::total             813469579                       # Total read bandwidth from this memory (bytes/s)
system.mem_ctrls.bw_inst_read::cpu0.inst        12576                       # Instruction read bandwidth from this memory (bytes/s)
system.mem_ctrls.bw_inst_read::total            12576                       # Instruction read bandwidth from this memory (bytes/s)
system.mem_ctrls.bw_write::writebacks         2393606                       # Write bandwidth from this memory (bytes/s)
system.mem_ctrls.bw_write::total              2393606                       # Write bandwidth from this memory (bytes/s)
system.mem_ctrls.bw_total::writebacks         2393606                       # Total bandwidth to/from this memory (bytes/s)
system.mem_ctrls.bw_total::cpu0.inst            12576                       # Total bandwidth to/from this memory (bytes/s)
system.mem_ctrls.bw_total::cpu0.data        813457003                       # Total bandwidth to/from this memory (bytes/s)
system.mem_ctrls.bw_total::total            815863185                       # Total bandwidth to/from this memory (bytes/s)
system.mem_ctrls.readReqs                      194054                       # Number of read requests accepted
system.mem_ctrls.writeReqs                        571                       # Number of write requests accepted
system.mem_ctrls.readBursts                    194054                       # Number of DRAM read bursts, including those serviced by the write queue
system.mem_ctrls.writeBursts                      571                       # Number of DRAM write bursts, including those merged in the write queue
system.mem_ctrls.bytesReadDRAM               12414208                       # Total number of bytes read from DRAM
system.mem_ctrls.bytesReadWrQ                    5248                       # Total number of bytes read from write queue
system.mem_ctrls.bytesWritten                   35840                       # Total number of bytes written to DRAM
system.mem_ctrls.bytesReadSys                12419456                       # Total read bytes from the system interface side
system.mem_ctrls.bytesWrittenSys                36544                       # Total written bytes from the system interface side
system.mem_ctrls.servicedByWrQ                     82                       # Number of DRAM read bursts serviced by the write queue
system.mem_ctrls.mergedWrBursts                     2                       # Number of DRAM write bursts merged with an existing one
system.mem_ctrls.neitherReadNorWriteReqs            0                       # Number of requests that are neither read nor write
system.mem_ctrls.perBankRdBursts::0             11813                       # Per bank write bursts
system.mem_ctrls.perBankRdBursts::1             11824                       # Per bank write bursts
system.mem_ctrls.perBankRdBursts::2             11858                       # Per bank write bursts
system.mem_ctrls.perBankRdBursts::3             12615                       # Per bank write bursts
system.mem_ctrls.perBankRdBursts::4             12923                       # Per bank write bursts
system.mem_ctrls.perBankRdBursts::5             12577                       # Per bank write bursts
system.mem_ctrls.perBankRdBursts::6             12601                       # Per bank write bursts
system.mem_ctrls.perBankRdBursts::7             12121                       # Per bank write bursts
system.mem_ctrls.perBankRdBursts::8             11866                       # Per bank write bursts
system.mem_ctrls.perBankRdBursts::9             11830                       # Per bank write bursts
system.mem_ctrls.perBankRdBursts::10            11946                       # Per bank write bursts
system.mem_ctrls.perBankRdBursts::11            12013                       # Per bank write bursts
system.mem_ctrls.perBankRdBursts::12            11751                       # Per bank write bursts
system.mem_ctrls.perBankRdBursts::13            11946                       # Per bank write bursts
system.mem_ctrls.perBankRdBursts::14            12222                       # Per bank write bursts
system.mem_ctrls.perBankRdBursts::15            12066                       # Per bank write bursts
system.mem_ctrls.perBankWrBursts::0                 0                       # Per bank write bursts
system.mem_ctrls.perBankWrBursts::1                 0                       # Per bank write bursts
system.mem_ctrls.perBankWrBursts::2                 0                       # Per bank write bursts
system.mem_ctrls.perBankWrBursts::3               163                       # Per bank write bursts
system.mem_ctrls.perBankWrBursts::4                25                       # Per bank write bursts
system.mem_ctrls.perBankWrBursts::5               114                       # Per bank write bursts
system.mem_ctrls.perBankWrBursts::6               128                       # Per bank write bursts
system.mem_ctrls.perBankWrBursts::7                73                       # Per bank write bursts
system.mem_ctrls.perBankWrBursts::8                 1                       # Per bank write bursts
system.mem_ctrls.perBankWrBursts::9                 0                       # Per bank write bursts
system.mem_ctrls.perBankWrBursts::10                0                       # Per bank write bursts
system.mem_ctrls.perBankWrBursts::11                0                       # Per bank write bursts
system.mem_ctrls.perBankWrBursts::12               39                       # Per bank write bursts
system.mem_ctrls.perBankWrBursts::13                0                       # Per bank write bursts
system.mem_ctrls.perBankWrBursts::14               17                       # Per bank write bursts
system.mem_ctrls.perBankWrBursts::15                0                       # Per bank write bursts
system.mem_ctrls.numRdRetry                         0                       # Number of times read queue was full causing retry
system.mem_ctrls.numWrRetry                         0                       # Number of times write queue was full causing retry
system.mem_ctrls.totGap                   15267266500                       # Total gap between requests
system.mem_ctrls.readPktSize::0                     0                       # Read request sizes (log2)
system.mem_ctrls.readPktSize::1                     0                       # Read request sizes (log2)
system.mem_ctrls.readPktSize::2                     0                       # Read request sizes (log2)
system.mem_ctrls.readPktSize::3                     0                       # Read request sizes (log2)
system.mem_ctrls.readPktSize::4                     0                       # Read request sizes (log2)
system.mem_ctrls.readPktSize::5                     0                       # Read request sizes (log2)
system.mem_ctrls.readPktSize::6                194054                       # Read request sizes (log2)
system.mem_ctrls.writePktSize::0                    0                       # Write request sizes (log2)
system.mem_ctrls.writePktSize::1                    0                       # Write request sizes (log2)
system.mem_ctrls.writePktSize::2                    0                       # Write request sizes (log2)
system.mem_ctrls.writePktSize::3                    0                       # Write request sizes (log2)
system.mem_ctrls.writePktSize::4                    0                       # Write request sizes (log2)
system.mem_ctrls.writePktSize::5                    0                       # Write request sizes (log2)
system.mem_ctrls.writePktSize::6                  571                       # Write request sizes (log2)
system.mem_ctrls.rdQLenPdf::0                  146778                       # What read queue length does an incoming req see
system.mem_ctrls.rdQLenPdf::1                   44125                       # What read queue length does an incoming req see
system.mem_ctrls.rdQLenPdf::2                    3021                       # What read queue length does an incoming req see
system.mem_ctrls.rdQLenPdf::3                      48                       # What read queue length does an incoming req see
system.mem_ctrls.rdQLenPdf::4                       0                       # What read queue length does an incoming req see
system.mem_ctrls.rdQLenPdf::5                       0                       # What read queue length does an incoming req see
system.mem_ctrls.rdQLenPdf::6                       0                       # What read queue length does an incoming req see
system.mem_ctrls.rdQLenPdf::7                       0                       # What read queue length does an incoming req see
system.mem_ctrls.rdQLenPdf::8                       0                       # What read queue length does an incoming req see
system.mem_ctrls.rdQLenPdf::9                       0                       # What read queue length does an incoming req see
system.mem_ctrls.rdQLenPdf::10                      0                       # What read queue length does an incoming req see
system.mem_ctrls.rdQLenPdf::11                      0                       # What read queue length does an incoming req see
system.mem_ctrls.rdQLenPdf::12                      0                       # What read queue length does an incoming req see
system.mem_ctrls.rdQLenPdf::13                      0                       # What read queue length does an incoming req see
system.mem_ctrls.rdQLenPdf::14                      0                       # What read queue length does an incoming req see
system.mem_ctrls.rdQLenPdf::15                      0                       # What read queue length does an incoming req see
system.mem_ctrls.rdQLenPdf::16                      0                       # What read queue length does an incoming req see
system.mem_ctrls.rdQLenPdf::17                      0                       # What read queue length does an incoming req see
system.mem_ctrls.rdQLenPdf::18                      0                       # What read queue length does an incoming req see
system.mem_ctrls.rdQLenPdf::19                      0                       # What read queue length does an incoming req see
system.mem_ctrls.rdQLenPdf::20                      0                       # What read queue length does an incoming req see
system.mem_ctrls.rdQLenPdf::21                      0                       # What read queue length does an incoming req see
system.mem_ctrls.rdQLenPdf::22                      0                       # What read queue length does an incoming req see
system.mem_ctrls.rdQLenPdf::23                      0                       # What read queue length does an incoming req see
system.mem_ctrls.rdQLenPdf::24                      0                       # What read queue length does an incoming req see
system.mem_ctrls.rdQLenPdf::25                      0                       # What read queue length does an incoming req see
system.mem_ctrls.rdQLenPdf::26                      0                       # What read queue length does an incoming req see
system.mem_ctrls.rdQLenPdf::27                      0                       # What read queue length does an incoming req see
system.mem_ctrls.rdQLenPdf::28                      0                       # What read queue length does an incoming req see
system.mem_ctrls.rdQLenPdf::29                      0                       # What read queue length does an incoming req see
system.mem_ctrls.rdQLenPdf::30                      0                       # What read queue length does an incoming req see
system.mem_ctrls.rdQLenPdf::31                      0                       # What read queue length does an incoming req see
system.mem_ctrls.wrQLenPdf::0                       0                       # What write queue length does an incoming req see
system.mem_ctrls.wrQLenPdf::1                       0                       # What write queue length does an incoming req see
system.mem_ctrls.wrQLenPdf::2                       0                       # What write queue length does an incoming req see
system.mem_ctrls.wrQLenPdf::3                       0                       # What write queue length does an incoming req see
system.mem_ctrls.wrQLenPdf::4                       0                       # What write queue length does an incoming req see
system.mem_ctrls.wrQLenPdf::5                       0                       # What write queue length does an incoming req see
system.mem_ctrls.wrQLenPdf::6                       0                       # What write queue length does an incoming req see
system.mem_ctrls.wrQLenPdf::7                       0                       # What write queue length does an incoming req see
system.mem_ctrls.wrQLenPdf::8                       0                       # What write queue length does an incoming req see
system.mem_ctrls.wrQLenPdf::9                       0                       # What write queue length does an incoming req see
system.mem_ctrls.wrQLenPdf::10                      0                       # What write queue length does an incoming req see
system.mem_ctrls.wrQLenPdf::11                      0                       # What write queue length does an incoming req see
system.mem_ctrls.wrQLenPdf::12                      0                       # What write queue length does an incoming req see
system.mem_ctrls.wrQLenPdf::13                      0                       # What write queue length does an incoming req see
system.mem_ctrls.wrQLenPdf::14                      0                       # What write queue length does an incoming req see
system.mem_ctrls.wrQLenPdf::15                      0                       # What write queue length does an incoming req see
system.mem_ctrls.wrQLenPdf::16                      0                       # What write queue length does an incoming req see
system.mem_ctrls.wrQLenPdf::17                     35                       # What write queue length does an incoming req see
system.mem_ctrls.wrQLenPdf::18                     35                       # What write queue length does an incoming req see
system.mem_ctrls.wrQLenPdf::19                     36                       # What write queue length does an incoming req see
system.mem_ctrls.wrQLenPdf::20                     36                       # What write queue length does an incoming req see
system.mem_ctrls.wrQLenPdf::21                     36                       # What write queue length does an incoming req see
system.mem_ctrls.wrQLenPdf::22                     36                       # What write queue length does an incoming req see
system.mem_ctrls.wrQLenPdf::23                     36                       # What write queue length does an incoming req see
system.mem_ctrls.wrQLenPdf::24                     36                       # What write queue length does an incoming req see
system.mem_ctrls.wrQLenPdf::25                     36                       # What write queue length does an incoming req see
system.mem_ctrls.wrQLenPdf::26                     36                       # What write queue length does an incoming req see
system.mem_ctrls.wrQLenPdf::27                     36                       # What write queue length does an incoming req see
system.mem_ctrls.wrQLenPdf::28                     35                       # What write queue length does an incoming req see
system.mem_ctrls.wrQLenPdf::29                     35                       # What write queue length does an incoming req see
system.mem_ctrls.wrQLenPdf::30                     35                       # What write queue length does an incoming req see
system.mem_ctrls.wrQLenPdf::31                     35                       # What write queue length does an incoming req see
system.mem_ctrls.wrQLenPdf::32                     35                       # What write queue length does an incoming req see
system.mem_ctrls.wrQLenPdf::33                      0                       # What write queue length does an incoming req see
system.mem_ctrls.wrQLenPdf::34                      0                       # What write queue length does an incoming req see
system.mem_ctrls.wrQLenPdf::35                      0                       # What write queue length does an incoming req see
system.mem_ctrls.wrQLenPdf::36                      0                       # What write queue length does an incoming req see
system.mem_ctrls.wrQLenPdf::37                      0                       # What write queue length does an incoming req see
system.mem_ctrls.wrQLenPdf::38                      0                       # What write queue length does an incoming req see
system.mem_ctrls.wrQLenPdf::39                      0                       # What write queue length does an incoming req see
system.mem_ctrls.wrQLenPdf::40                      0                       # What write queue length does an incoming req see
system.mem_ctrls.wrQLenPdf::41                      0                       # What write queue length does an incoming req see
system.mem_ctrls.wrQLenPdf::42                      0                       # What write queue length does an incoming req see
system.mem_ctrls.wrQLenPdf::43                      0                       # What write queue length does an incoming req see
system.mem_ctrls.wrQLenPdf::44                      0                       # What write queue length does an incoming req see
system.mem_ctrls.wrQLenPdf::45                      0                       # What write queue length does an incoming req see
system.mem_ctrls.wrQLenPdf::46                      0                       # What write queue length does an incoming req see
system.mem_ctrls.wrQLenPdf::47                      0                       # What write queue length does an incoming req see
system.mem_ctrls.wrQLenPdf::48                      0                       # What write queue length does an incoming req see
system.mem_ctrls.wrQLenPdf::49                      0                       # What write queue length does an incoming req see
system.mem_ctrls.wrQLenPdf::50                      0                       # What write queue length does an incoming req see
system.mem_ctrls.wrQLenPdf::51                      0                       # What write queue length does an incoming req see
system.mem_ctrls.wrQLenPdf::52                      0                       # What write queue length does an incoming req see
system.mem_ctrls.wrQLenPdf::53                      0                       # What write queue length does an incoming req see
system.mem_ctrls.wrQLenPdf::54                      0                       # What write queue length does an incoming req see
system.mem_ctrls.wrQLenPdf::55                      0                       # What write queue length does an incoming req see
system.mem_ctrls.wrQLenPdf::56                      0                       # What write queue length does an incoming req see
system.mem_ctrls.wrQLenPdf::57                      0                       # What write queue length does an incoming req see
system.mem_ctrls.wrQLenPdf::58                      0                       # What write queue length does an incoming req see
system.mem_ctrls.wrQLenPdf::59                      0                       # What write queue length does an incoming req see
system.mem_ctrls.wrQLenPdf::60                      0                       # What write queue length does an incoming req see
system.mem_ctrls.wrQLenPdf::61                      0                       # What write queue length does an incoming req see
system.mem_ctrls.wrQLenPdf::62                      0                       # What write queue length does an incoming req see
system.mem_ctrls.wrQLenPdf::63                      0                       # What write queue length does an incoming req see
system.mem_ctrls.bytesPerActivate::samples        97647                       # Bytes accessed per row activation
system.mem_ctrls.bytesPerActivate::mean    127.501879                       # Bytes accessed per row activation
system.mem_ctrls.bytesPerActivate::gmean   109.646107                       # Bytes accessed per row activation
system.mem_ctrls.bytesPerActivate::stdev    76.599243                       # Bytes accessed per row activation
system.mem_ctrls.bytesPerActivate::0-127        42588     43.61%     43.61% # Bytes accessed per row activation
system.mem_ctrls.bytesPerActivate::128-255        44351     45.42%     89.03% # Bytes accessed per row activation
system.mem_ctrls.bytesPerActivate::256-383         9270      9.49%     98.53% # Bytes accessed per row activation
system.mem_ctrls.bytesPerActivate::384-511         1242      1.27%     99.80% # Bytes accessed per row activation
system.mem_ctrls.bytesPerActivate::512-639          148      0.15%     99.95% # Bytes accessed per row activation
system.mem_ctrls.bytesPerActivate::640-767           24      0.02%     99.98% # Bytes accessed per row activation
system.mem_ctrls.bytesPerActivate::768-895           11      0.01%     99.99% # Bytes accessed per row activation
system.mem_ctrls.bytesPerActivate::896-1023            9      0.01%    100.00% # Bytes accessed per row activation
system.mem_ctrls.bytesPerActivate::1024-1151            4      0.00%    100.00% # Bytes accessed per row activation
system.mem_ctrls.bytesPerActivate::total        97647                       # Bytes accessed per row activation
system.mem_ctrls.rdPerTurnAround::samples           35                       # Reads before turning the bus around for writes
system.mem_ctrls.rdPerTurnAround::mean    5446.057143                       # Reads before turning the bus around for writes
system.mem_ctrls.rdPerTurnAround::gmean   5223.200141                       # Reads before turning the bus around for writes
system.mem_ctrls.rdPerTurnAround::stdev   1543.675445                       # Reads before turning the bus around for writes
system.mem_ctrls.rdPerTurnAround::2048-2559            1      2.86%      2.86% # Reads before turning the bus around for writes
system.mem_ctrls.rdPerTurnAround::2560-3071            1      2.86%      5.71% # Reads before turning the bus around for writes
system.mem_ctrls.rdPerTurnAround::3072-3583            2      5.71%     11.43% # Reads before turning the bus around for writes
system.mem_ctrls.rdPerTurnAround::3584-4095            3      8.57%     20.00% # Reads before turning the bus around for writes
system.mem_ctrls.rdPerTurnAround::4096-4607            5     14.29%     34.29% # Reads before turning the bus around for writes
system.mem_ctrls.rdPerTurnAround::4608-5119            4     11.43%     45.71% # Reads before turning the bus around for writes
system.mem_ctrls.rdPerTurnAround::5120-5631            4     11.43%     57.14% # Reads before turning the bus around for writes
system.mem_ctrls.rdPerTurnAround::5632-6143            3      8.57%     65.71% # Reads before turning the bus around for writes
system.mem_ctrls.rdPerTurnAround::6144-6655            2      5.71%     71.43% # Reads before turning the bus around for writes
system.mem_ctrls.rdPerTurnAround::6656-7167            6     17.14%     88.57% # Reads before turning the bus around for writes
system.mem_ctrls.rdPerTurnAround::7168-7679            1      2.86%     91.43% # Reads before turning the bus around for writes
system.mem_ctrls.rdPerTurnAround::7680-8191            2      5.71%     97.14% # Reads before turning the bus around for writes
system.mem_ctrls.rdPerTurnAround::8704-9215            1      2.86%    100.00% # Reads before turning the bus around for writes
system.mem_ctrls.rdPerTurnAround::total            35                       # Reads before turning the bus around for writes
system.mem_ctrls.wrPerTurnAround::samples           35                       # Writes before turning the bus around for reads
system.mem_ctrls.wrPerTurnAround::mean             16                       # Writes before turning the bus around for reads
system.mem_ctrls.wrPerTurnAround::gmean     16.000000                       # Writes before turning the bus around for reads
system.mem_ctrls.wrPerTurnAround::16               35    100.00%    100.00% # Writes before turning the bus around for reads
system.mem_ctrls.wrPerTurnAround::total            35                       # Writes before turning the bus around for reads
system.mem_ctrls.totQLat                   4764222500                       # Total ticks spent queuing
system.mem_ctrls.totMemAccLat              8401197500                       # Total ticks spent from burst creation until serviced by the DRAM
system.mem_ctrls.totBusLat                  969860000                       # Total ticks spent in databus transfers
system.mem_ctrls.avgQLat                     24561.39                       # Average queueing delay per DRAM burst
system.mem_ctrls.avgBusLat                    5000.00                       # Average bus latency per DRAM burst
system.mem_ctrls.avgMemAccLat                43311.39                       # Average memory access latency per DRAM burst
system.mem_ctrls.avgRdBW                       813.12                       # Average DRAM read bandwidth in MiByte/s
system.mem_ctrls.avgWrBW                         2.35                       # Average achieved write bandwidth in MiByte/s
system.mem_ctrls.avgRdBWSys                    813.47                       # Average system read bandwidth in MiByte/s
system.mem_ctrls.avgWrBWSys                      2.39                       # Average system write bandwidth in MiByte/s
system.mem_ctrls.peakBW                      12800.00                       # Theoretical peak bandwidth in MiByte/s
system.mem_ctrls.busUtil                         6.37                       # Data bus utilization in percentage
system.mem_ctrls.busUtilRead                     6.35                       # Data bus utilization in percentage for reads
system.mem_ctrls.busUtilWrite                    0.02                       # Data bus utilization in percentage for writes
system.mem_ctrls.avgRdQLen                       1.32                       # Average read queue length when enqueuing
system.mem_ctrls.avgWrQLen                      25.67                       # Average write queue length when enqueuing
system.mem_ctrls.readRowHits                    96413                       # Number of row buffer hits during reads
system.mem_ctrls.writeRowHits                     473                       # Number of row buffer hits during writes
system.mem_ctrls.readRowHitRate                 49.70                       # Row buffer hit rate for reads
system.mem_ctrls.writeRowHitRate                83.13                       # Row buffer hit rate for writes
system.mem_ctrls.avgGap                      78444.53                       # Average gap between requests
system.mem_ctrls.pageHitRate                    49.80                       # Row buffer hit rate, read and write combined
system.mem_ctrls_0.actEnergy                353772720                       # Energy for activate commands per rank (pJ)
system.mem_ctrls_0.preEnergy                188038455                       # Energy for precharge commands per rank (pJ)
system.mem_ctrls_0.readEnergy               702090480                       # Energy for read commands per rank (pJ)
system.mem_ctrls_0.writeEnergy                2625660                       # Energy for write commands per rank (pJ)
system.mem_ctrls_0.refreshEnergy         1205309040.000000                       # Energy for refresh commands per rank (pJ)
system.mem_ctrls_0.actBackEnergy           1649462580                       # Energy for active background per rank (pJ)
system.mem_ctrls_0.preBackEnergy             24407520                       # Energy for precharge background per rank (pJ)
system.mem_ctrls_0.actPowerDownEnergy      5176104450                       # Energy for active power-down per rank (pJ)
system.mem_ctrls_0.prePowerDownEnergy        90407040                       # Energy for precharge power-down per rank (pJ)
system.mem_ctrls_0.selfRefreshEnergy                0                       # Energy for self refresh per rank (pJ)
system.mem_ctrls_0.totalEnergy             9392217945                       # Total energy per rank (pJ)
system.mem_ctrls_0.averagePower            615.183484                       # Core power per rank (mW)
system.mem_ctrls_0.totalIdleTime          11587252000                       # Total Idle time Per DRAM Rank
system.mem_ctrls_0.memoryStateTime::IDLE      9252000                       # Time in different power states
system.mem_ctrls_0.memoryStateTime::REF     509860000                       # Time in different power states
system.mem_ctrls_0.memoryStateTime::SREF            0                       # Time in different power states
system.mem_ctrls_0.memoryStateTime::PRE_PDN    235437750                       # Time in different power states
system.mem_ctrls_0.memoryStateTime::ACT    3160733250                       # Time in different power states
system.mem_ctrls_0.memoryStateTime::ACT_PDN  11352061125                       # Time in different power states
system.mem_ctrls_1.actEnergy                343419720                       # Energy for activate commands per rank (pJ)
system.mem_ctrls_1.preEnergy                182531910                       # Energy for precharge commands per rank (pJ)
system.mem_ctrls_1.readEnergy               682869600                       # Energy for read commands per rank (pJ)
system.mem_ctrls_1.writeEnergy                 297540                       # Energy for write commands per rank (pJ)
system.mem_ctrls_1.refreshEnergy         1205309040.000000                       # Energy for refresh commands per rank (pJ)
system.mem_ctrls_1.actBackEnergy           1607609190                       # Energy for active background per rank (pJ)
system.mem_ctrls_1.preBackEnergy             24663840                       # Energy for precharge background per rank (pJ)
system.mem_ctrls_1.actPowerDownEnergy      5196981840                       # Energy for active power-down per rank (pJ)
system.mem_ctrls_1.prePowerDownEnergy       107340000                       # Energy for precharge power-down per rank (pJ)
system.mem_ctrls_1.selfRefreshEnergy     848940.000000                       # Energy for self refresh per rank (pJ)
system.mem_ctrls_1.totalEnergy             9351871620                       # Total energy per rank (pJ)
system.mem_ctrls_1.averagePower            612.540829                       # Core power per rank (mW)
system.mem_ctrls_1.totalIdleTime          11678379750                       # Total Idle time Per DRAM Rank
system.mem_ctrls_1.memoryStateTime::IDLE      9858500                       # Time in different power states
system.mem_ctrls_1.memoryStateTime::REF     509866000                       # Time in different power states
system.mem_ctrls_1.memoryStateTime::SREF      1236500                       # Time in different power states
system.mem_ctrls_1.memoryStateTime::PRE_PDN    279696750                       # Time in different power states
system.mem_ctrls_1.memoryStateTime::ACT    3069201500                       # Time in different power states
system.mem_ctrls_1.memoryStateTime::ACT_PDN  11397484875                       # Time in different power states
system.pwrStateResidencyTicks::UNDEFINED  15267344125                       # Cumulative time (in ticks) in various power states
system.cpu0.branchPred.lookups                1554176                       # Number of BP lookups
system.cpu0.branchPred.condPredicted          1554176                       # Number of conditional branches predicted
system.cpu0.branchPred.condIncorrect            67150                       # Number of conditional branches incorrect
system.cpu0.branchPred.BTBLookups             1185685                       # Number of BTB lookups
system.cpu0.branchPred.BTBHits                      0                       # Number of BTB hits
system.cpu0.branchPred.BTBCorrect                   0                       # Number of correct BTB predictions (this stat may not work properly.
system.cpu0.branchPred.BTBHitPct             0.000000                       # BTB Hit Percentage
system.cpu0.branchPred.usedRAS                  48710                       # Number of times the RAS was used to get a target.
system.cpu0.branchPred.RASInCorrect              7253                       # Number of incorrect RAS predictions.
system.cpu0.branchPred.indirectLookups        1185685                       # Number of indirect predictor lookups.
system.cpu0.branchPred.indirectHits            657352                       # Number of indirect target hits.
system.cpu0.branchPred.indirectMisses          528333                       # Number of indirect misses.
system.cpu0.branchPredindirectMispredicted        22343                       # Number of mispredicted indirect branches.
system.cpu_voltage_domain.voltage                   1                       # Voltage in Volts
system.cpu_clk_domain.clock                       500                       # Clock period in ticks
system.cpu0.dtb.walker.pwrStateResidencyTicks::UNDEFINED  15267344125                       # Cumulative time (in ticks) in various power states
system.cpu0.dtb.rdAccesses                     744745                       # TLB accesses on read requests
system.cpu0.dtb.wrAccesses                      60382                       # TLB accesses on write requests
system.cpu0.dtb.rdMisses                       148311                       # TLB misses on read requests
system.cpu0.dtb.wrMisses                         1158                       # TLB misses on write requests
system.cpu0.apic_clk_domain.clock                8000                       # Clock period in ticks
system.cpu0.interrupts.pwrStateResidencyTicks::UNDEFINED  15267344125                       # Cumulative time (in ticks) in various power states
system.cpu0.itb.walker.pwrStateResidencyTicks::UNDEFINED  15267344125                       # Cumulative time (in ticks) in various power states
system.cpu0.itb.rdAccesses                          0                       # TLB accesses on read requests
system.cpu0.itb.wrAccesses                    1278288                       # TLB accesses on write requests
system.cpu0.itb.rdMisses                            0                       # TLB misses on read requests
system.cpu0.itb.wrMisses                         5010                       # TLB misses on write requests
system.cpu0.workload.numSyscalls                    1                       # Number of system calls
system.cpu0.pwrStateResidencyTicks::ON    15267344125                       # Cumulative time (in ticks) in various power states
system.cpu0.numCycles                        30534688                       # number of cpu cycles simulated
system.cpu0.numWorkItemsStarted                     0                       # number of work items this cpu started
system.cpu0.numWorkItemsCompleted                   0                       # number of work items this cpu completed
system.cpu0.fetch.icacheStallCycles           1308550                       # Number of cycles fetch is stalled on an Icache miss
system.cpu0.fetch.Insts                       4609622                       # Number of instructions fetch has processed
system.cpu0.fetch.Branches                    1554176                       # Number of branches that fetch encountered
system.cpu0.fetch.predictedBranches            706062                       # Number of branches that fetch has predicted taken
system.cpu0.fetch.Cycles                     29045507                       # Number of cycles fetch has run and was not squashing or blocked
system.cpu0.fetch.SquashCycles                 137728                       # Number of cycles fetch has spent squashing
system.cpu0.fetch.TlbCycles                      4021                       # Number of cycles fetch has spent waiting for tlb
system.cpu0.fetch.MiscStallCycles                1085                       # Number of cycles fetch has spent waiting on interrupts, or bad addresses, or out of MSHRs
system.cpu0.fetch.PendingTrapStallCycles        45674                       # Number of stall cycles due to pending traps
system.cpu0.fetch.CacheLines                  1273278                       # Number of cache lines fetched
system.cpu0.fetch.IcacheSquashes                 8063                       # Number of outstanding Icache misses that were squashed
system.cpu0.fetch.ItlbSquashes                     15                       # Number of outstanding ITLB misses that were squashed
system.cpu0.fetch.rateDist::samples          30473701                       # Number of instructions fetched each cycle (Total)
system.cpu0.fetch.rateDist::mean             0.304315                       # Number of instructions fetched each cycle (Total)
system.cpu0.fetch.rateDist::stdev            1.391702                       # Number of instructions fetched each cycle (Total)
system.cpu0.fetch.rateDist::underflows              0      0.00%      0.00% # Number of instructions fetched each cycle (Total)
system.cpu0.fetch.rateDist::0                28697747     94.17%     94.17% # Number of instructions fetched each cycle (Total)
system.cpu0.fetch.rateDist::1                   19867      0.07%     94.24% # Number of instructions fetched each cycle (Total)
system.cpu0.fetch.rateDist::2                  622047      2.04%     96.28% # Number of instructions fetched each cycle (Total)
system.cpu0.fetch.rateDist::3                   29851      0.10%     96.38% # Number of instructions fetched each cycle (Total)
system.cpu0.fetch.rateDist::4                  123771      0.41%     96.78% # Number of instructions fetched each cycle (Total)
system.cpu0.fetch.rateDist::5                   74262      0.24%     97.03% # Number of instructions fetched each cycle (Total)
system.cpu0.fetch.rateDist::6                   85140      0.28%     97.31% # Number of instructions fetched each cycle (Total)
system.cpu0.fetch.rateDist::7                   25271      0.08%     97.39% # Number of instructions fetched each cycle (Total)
system.cpu0.fetch.rateDist::8                  795745      2.61%    100.00% # Number of instructions fetched each cycle (Total)
system.cpu0.fetch.rateDist::overflows               0      0.00%    100.00% # Number of instructions fetched each cycle (Total)
system.cpu0.fetch.rateDist::min_value               0                       # Number of instructions fetched each cycle (Total)
system.cpu0.fetch.rateDist::max_value               8                       # Number of instructions fetched each cycle (Total)
system.cpu0.fetch.rateDist::total            30473701                       # Number of instructions fetched each cycle (Total)
system.cpu0.fetch.branchRate                 0.050899                       # Number of branch fetches per cycle
system.cpu0.fetch.rate                       0.150963                       # Number of inst fetches per cycle
system.cpu0.decode.IdleCycles                  655017                       # Number of cycles decode is idle
system.cpu0.decode.BlockedCycles             28584593                       # Number of cycles decode is blocked
system.cpu0.decode.RunCycles                   857791                       # Number of cycles decode is running
system.cpu0.decode.UnblockCycles               307436                       # Number of cycles decode is unblocking
system.cpu0.decode.SquashCycles                 68864                       # Number of cycles decode is squashing
system.cpu0.decode.DecodedInsts               7631814                       # Number of instructions handled by decode
system.cpu0.rename.SquashCycles                 68864                       # Number of cycles rename is squashing
system.cpu0.rename.IdleCycles                  748347                       # Number of cycles rename is idle
system.cpu0.rename.BlockCycles               27268583                       # Number of cycles rename is blocking
system.cpu0.rename.serializeStallCycles         17448                       # count of cycles rename stalled for serializing inst
system.cpu0.rename.RunCycles                   995594                       # Number of cycles rename is running
system.cpu0.rename.UnblockCycles              1374865                       # Number of cycles rename is unblocking
system.cpu0.rename.RenamedInsts               7311518                       # Number of instructions processed by rename
system.cpu0.rename.ROBFullEvents                92404                       # Number of times rename has blocked due to ROB full
system.cpu0.rename.IQFullEvents               1015390                       # Number of times rename has blocked due to IQ full
system.cpu0.rename.LQFullEvents                322640                       # Number of times rename has blocked due to LQ full
system.cpu0.rename.SQFullEvents                   861                       # Number of times rename has blocked due to SQ full
system.cpu0.rename.RenamedOperands            8734987                       # Number of destination operands rename has renamed
system.cpu0.rename.RenameLookups             20266938                       # Number of register rename lookups that rename has made
system.cpu0.rename.int_rename_lookups         9686150                       # Number of integer rename lookups
system.cpu0.rename.fp_rename_lookups            42670                       # Number of floating rename lookups
system.cpu0.rename.CommittedMaps              3162954                       # Number of HB maps that are committed
system.cpu0.rename.UndoneMaps                 5572039                       # Number of HB maps that are undone due to squashing
system.cpu0.rename.serializingInsts               301                       # count of serializing insts renamed
system.cpu0.rename.tempSerializingInsts           383                       # count of temporary serializing insts renamed
system.cpu0.rename.skidInsts                  1942132                       # count of insts added to the skid buffer
system.cpu0.memDep0.insertedLoads             1292507                       # Number of loads inserted to the mem dependence unit.
system.cpu0.memDep0.insertedStores              86044                       # Number of stores inserted to the mem dependence unit.
system.cpu0.memDep0.conflictingLoads             5476                       # Number of conflicting loads.
system.cpu0.memDep0.conflictingStores            5221                       # Number of conflicting stores.
system.cpu0.iq.iqInstsAdded                   6929836                       # Number of instructions added to the IQ (excludes non-spec)
system.cpu0.iq.iqNonSpecInstsAdded               4827                       # Number of non-speculative instructions added to the IQ
system.cpu0.iq.iqInstsIssued                  5017792                       # Number of instructions issued
system.cpu0.iq.iqSquashedInstsIssued             7195                       # Number of squashed instructions issued
system.cpu0.iq.iqSquashedInstsExamined        4302084                       # Number of squashed instructions iterated over during squash; mainly for profiling
system.cpu0.iq.iqSquashedOperandsExamined      8789018                       # Number of squashed operands that are examined and possibly removed from graph
system.cpu0.iq.iqSquashedNonSpecRemoved          4826                       # Number of squashed non-spec instructions that were removed
system.cpu0.iq.issued_per_cycle::samples     30473701                       # Number of insts issued each cycle
system.cpu0.iq.issued_per_cycle::mean        0.164660                       # Number of insts issued each cycle
system.cpu0.iq.issued_per_cycle::stdev       0.748201                       # Number of insts issued each cycle
system.cpu0.iq.issued_per_cycle::underflows            0      0.00%      0.00% # Number of insts issued each cycle
system.cpu0.iq.issued_per_cycle::0           28448938     93.36%     93.36% # Number of insts issued each cycle
system.cpu0.iq.issued_per_cycle::1             791445      2.60%     95.95% # Number of insts issued each cycle
system.cpu0.iq.issued_per_cycle::2             424318      1.39%     97.35% # Number of insts issued each cycle
system.cpu0.iq.issued_per_cycle::3             288657      0.95%     98.29% # Number of insts issued each cycle
system.cpu0.iq.issued_per_cycle::4             294720      0.97%     99.26% # Number of insts issued each cycle
system.cpu0.iq.issued_per_cycle::5              94243      0.31%     99.57% # Number of insts issued each cycle
system.cpu0.iq.issued_per_cycle::6              79961      0.26%     99.83% # Number of insts issued each cycle
system.cpu0.iq.issued_per_cycle::7              29473      0.10%     99.93% # Number of insts issued each cycle
system.cpu0.iq.issued_per_cycle::8              21946      0.07%    100.00% # Number of insts issued each cycle
system.cpu0.iq.issued_per_cycle::overflows            0      0.00%    100.00% # Number of insts issued each cycle
system.cpu0.iq.issued_per_cycle::min_value            0                       # Number of insts issued each cycle
system.cpu0.iq.issued_per_cycle::max_value            8                       # Number of insts issued each cycle
system.cpu0.iq.issued_per_cycle::total       30473701                       # Number of insts issued each cycle
system.cpu0.iq.fu_full::No_OpClass                  0      0.00%      0.00% # attempts to use FU when none available
system.cpu0.iq.fu_full::IntAlu                  12864     67.00%     67.00% # attempts to use FU when none available
system.cpu0.iq.fu_full::IntMult                     0      0.00%     67.00% # attempts to use FU when none available
system.cpu0.iq.fu_full::IntDiv                      0      0.00%     67.00% # attempts to use FU when none available
system.cpu0.iq.fu_full::FloatAdd                 1349      7.03%     74.03% # attempts to use FU when none available
system.cpu0.iq.fu_full::FloatCmp                    0      0.00%     74.03% # attempts to use FU when none available
system.cpu0.iq.fu_full::FloatCvt                    0      0.00%     74.03% # attempts to use FU when none available
system.cpu0.iq.fu_full::FloatMult                   0      0.00%     74.03% # attempts to use FU when none available
system.cpu0.iq.fu_full::FloatMultAcc                0      0.00%     74.03% # attempts to use FU when none available
system.cpu0.iq.fu_full::FloatDiv                    0      0.00%     74.03% # attempts to use FU when none available
system.cpu0.iq.fu_full::FloatMisc                   0      0.00%     74.03% # attempts to use FU when none available
system.cpu0.iq.fu_full::FloatSqrt                   0      0.00%     74.03% # attempts to use FU when none available
system.cpu0.iq.fu_full::SimdAdd                     0      0.00%     74.03% # attempts to use FU when none available
system.cpu0.iq.fu_full::SimdAddAcc                  0      0.00%     74.03% # attempts to use FU when none available
system.cpu0.iq.fu_full::SimdAlu                     0      0.00%     74.03% # attempts to use FU when none available
system.cpu0.iq.fu_full::SimdCmp                     0      0.00%     74.03% # attempts to use FU when none available
system.cpu0.iq.fu_full::SimdCvt                     0      0.00%     74.03% # attempts to use FU when none available
system.cpu0.iq.fu_full::SimdMisc                    0      0.00%     74.03% # attempts to use FU when none available
system.cpu0.iq.fu_full::SimdMult                    0      0.00%     74.03% # attempts to use FU when none available
system.cpu0.iq.fu_full::SimdMultAcc                 0      0.00%     74.03% # attempts to use FU when none available
system.cpu0.iq.fu_full::SimdShift                   0      0.00%     74.03% # attempts to use FU when none available
system.cpu0.iq.fu_full::SimdShiftAcc                0      0.00%     74.03% # attempts to use FU when none available
system.cpu0.iq.fu_full::SimdSqrt                    0      0.00%     74.03% # attempts to use FU when none available
system.cpu0.iq.fu_full::SimdFloatAdd                0      0.00%     74.03% # attempts to use FU when none available
system.cpu0.iq.fu_full::SimdFloatAlu                0      0.00%     74.03% # attempts to use FU when none available
system.cpu0.iq.fu_full::SimdFloatCmp                0      0.00%     74.03% # attempts to use FU when none available
system.cpu0.iq.fu_full::SimdFloatCvt                0      0.00%     74.03% # attempts to use FU when none available
system.cpu0.iq.fu_full::SimdFloatDiv                0      0.00%     74.03% # attempts to use FU when none available
system.cpu0.iq.fu_full::SimdFloatMisc               0      0.00%     74.03% # attempts to use FU when none available
system.cpu0.iq.fu_full::SimdFloatMult               0      0.00%     74.03% # attempts to use FU when none available
system.cpu0.iq.fu_full::SimdFloatMultAcc            0      0.00%     74.03% # attempts to use FU when none available
system.cpu0.iq.fu_full::SimdFloatSqrt               0      0.00%     74.03% # attempts to use FU when none available
system.cpu0.iq.fu_full::MemRead                  4544     23.67%     97.70% # attempts to use FU when none available
system.cpu0.iq.fu_full::MemWrite                  329      1.71%     99.41% # attempts to use FU when none available
system.cpu0.iq.fu_full::FloatMemRead               72      0.38%     99.79% # attempts to use FU when none available
system.cpu0.iq.fu_full::FloatMemWrite              41      0.21%    100.00% # attempts to use FU when none available
system.cpu0.iq.fu_full::IprAccess                   0      0.00%    100.00% # attempts to use FU when none available
system.cpu0.iq.fu_full::InstPrefetch                0      0.00%    100.00% # attempts to use FU when none available
system.cpu0.iq.FU_type_0::No_OpClass            18649      0.37%      0.37% # Type of FU issued
system.cpu0.iq.FU_type_0::IntAlu              4125383     82.22%     82.59% # Type of FU issued
system.cpu0.iq.FU_type_0::IntMult                 976      0.02%     82.61% # Type of FU issued
system.cpu0.iq.FU_type_0::IntDiv                12547      0.25%     82.86% # Type of FU issued
system.cpu0.iq.FU_type_0::FloatAdd              17115      0.34%     83.20% # Type of FU issued
system.cpu0.iq.FU_type_0::FloatCmp                  0      0.00%     83.20% # Type of FU issued
system.cpu0.iq.FU_type_0::FloatCvt                  0      0.00%     83.20% # Type of FU issued
system.cpu0.iq.FU_type_0::FloatMult                 0      0.00%     83.20% # Type of FU issued
system.cpu0.iq.FU_type_0::FloatMultAcc              0      0.00%     83.20% # Type of FU issued
system.cpu0.iq.FU_type_0::FloatDiv                  0      0.00%     83.20% # Type of FU issued
system.cpu0.iq.FU_type_0::FloatMisc                 0      0.00%     83.20% # Type of FU issued
system.cpu0.iq.FU_type_0::FloatSqrt                 0      0.00%     83.20% # Type of FU issued
system.cpu0.iq.FU_type_0::SimdAdd                   0      0.00%     83.20% # Type of FU issued
system.cpu0.iq.FU_type_0::SimdAddAcc                0      0.00%     83.20% # Type of FU issued
system.cpu0.iq.FU_type_0::SimdAlu                   0      0.00%     83.20% # Type of FU issued
system.cpu0.iq.FU_type_0::SimdCmp                   0      0.00%     83.20% # Type of FU issued
system.cpu0.iq.FU_type_0::SimdCvt                   0      0.00%     83.20% # Type of FU issued
system.cpu0.iq.FU_type_0::SimdMisc                  0      0.00%     83.20% # Type of FU issued
system.cpu0.iq.FU_type_0::SimdMult                  0      0.00%     83.20% # Type of FU issued
system.cpu0.iq.FU_type_0::SimdMultAcc               0      0.00%     83.20% # Type of FU issued
system.cpu0.iq.FU_type_0::SimdShift                 0      0.00%     83.20% # Type of FU issued
system.cpu0.iq.FU_type_0::SimdShiftAcc              0      0.00%     83.20% # Type of FU issued
system.cpu0.iq.FU_type_0::SimdSqrt                  0      0.00%     83.20% # Type of FU issued
system.cpu0.iq.FU_type_0::SimdFloatAdd              0      0.00%     83.20% # Type of FU issued
system.cpu0.iq.FU_type_0::SimdFloatAlu              0      0.00%     83.20% # Type of FU issued
system.cpu0.iq.FU_type_0::SimdFloatCmp              0      0.00%     83.20% # Type of FU issued
system.cpu0.iq.FU_type_0::SimdFloatCvt              0      0.00%     83.20% # Type of FU issued
system.cpu0.iq.FU_type_0::SimdFloatDiv              0      0.00%     83.20% # Type of FU issued
system.cpu0.iq.FU_type_0::SimdFloatMisc             0      0.00%     83.20% # Type of FU issued
system.cpu0.iq.FU_type_0::SimdFloatMult             0      0.00%     83.20% # Type of FU issued
system.cpu0.iq.FU_type_0::SimdFloatMultAcc            0      0.00%     83.20% # Type of FU issued
system.cpu0.iq.FU_type_0::SimdFloatSqrt             0      0.00%     83.20% # Type of FU issued
system.cpu0.iq.FU_type_0::MemRead              775761     15.46%     98.66% # Type of FU issued
system.cpu0.iq.FU_type_0::MemWrite              64472      1.28%     99.94% # Type of FU issued
system.cpu0.iq.FU_type_0::FloatMemRead           2738      0.05%    100.00% # Type of FU issued
system.cpu0.iq.FU_type_0::FloatMemWrite           151      0.00%    100.00% # Type of FU issued
system.cpu0.iq.FU_type_0::IprAccess                 0      0.00%    100.00% # Type of FU issued
system.cpu0.iq.FU_type_0::InstPrefetch              0      0.00%    100.00% # Type of FU issued
system.cpu0.iq.FU_type_0::total               5017792                       # Type of FU issued
system.cpu0.iq.rate                          0.164331                       # Inst issue rate
system.cpu0.iq.fu_busy_cnt                      19199                       # FU busy when requested
system.cpu0.iq.fu_busy_rate                  0.003826                       # FU busy rate (busy events/executed inst)
system.cpu0.iq.int_inst_queue_reads          40493962                       # Number of integer instruction queue reads
system.cpu0.iq.int_inst_queue_writes         11203413                       # Number of integer instruction queue writes
system.cpu0.iq.int_inst_queue_wakeup_accesses      4807888                       # Number of integer instruction queue wakeup accesses
system.cpu0.iq.fp_inst_queue_reads              41717                       # Number of floating instruction queue reads
system.cpu0.iq.fp_inst_queue_writes             33340                       # Number of floating instruction queue writes
system.cpu0.iq.fp_inst_queue_wakeup_accesses        18931                       # Number of floating instruction queue wakeup accesses
system.cpu0.iq.vec_inst_queue_reads                 0                       # Number of vector instruction queue reads
system.cpu0.iq.vec_inst_queue_writes                0                       # Number of vector instruction queue writes
system.cpu0.iq.vec_inst_queue_wakeup_accesses            0                       # Number of vector instruction queue wakeup accesses
system.cpu0.iq.int_alu_accesses               4996867                       # Number of integer alu accesses
system.cpu0.iq.fp_alu_accesses                  21475                       # Number of floating point alu accesses
system.cpu0.iq.vec_alu_accesses                     0                       # Number of vector alu accesses
system.cpu0.iew.lsq.thread0.forwLoads            5888                       # Number of loads that had data forwarded from stores
system.cpu0.iew.lsq.thread0.invAddrLoads            0                       # Number of loads ignored due to an invalid address
system.cpu0.iew.lsq.thread0.squashedLoads       812112                       # Number of loads squashed
system.cpu0.iew.lsq.thread0.ignoredResponses          166                       # Number of memory responses ignored because the instruction is squashed
system.cpu0.iew.lsq.thread0.memOrderViolation           10                       # Number of memory ordering violations
system.cpu0.iew.lsq.thread0.squashedStores        48885                       # Number of stores squashed
system.cpu0.iew.lsq.thread0.invAddrSwpfs            0                       # Number of software prefetches ignored due to an invalid address
system.cpu0.iew.lsq.thread0.blockedLoads            0                       # Number of blocked loads due to partial load-store forwarding
system.cpu0.iew.lsq.thread0.rescheduledLoads           65                       # Number of loads that were rescheduled
system.cpu0.iew.lsq.thread0.cacheBlocked         1002                       # Number of times an access to memory failed due to the cache being blocked
system.cpu0.iew.iewIdleCycles                       0                       # Number of cycles IEW is idle
system.cpu0.iew.iewSquashCycles                 68864                       # Number of cycles IEW is squashing
system.cpu0.iew.iewBlockCycles               25193860                       # Number of cycles IEW is blocking
system.cpu0.iew.iewUnblockCycles               282954                       # Number of cycles IEW is unblocking
system.cpu0.iew.iewDispatchedInsts            6934663                       # Number of instructions dispatched to IQ
system.cpu0.iew.iewDispSquashedInsts             4258                       # Number of squashed instructions skipped by dispatch
system.cpu0.iew.iewDispLoadInsts              1292507                       # Number of dispatched load instructions
system.cpu0.iew.iewDispStoreInsts               86044                       # Number of dispatched store instructions
system.cpu0.iew.iewDispNonSpecInsts              1794                       # Number of dispatched non-speculative instructions
system.cpu0.iew.iewIQFullEvents                 17574                       # Number of times the IQ has become full, causing a stall
system.cpu0.iew.iewLSQFullEvents                82761                       # Number of times the LSQ has become full, causing a stall
system.cpu0.iew.memOrderViolationEvents            10                       # Number of memory order violations
system.cpu0.iew.predictedTakenIncorrect         35814                       # Number of branches that were predicted taken incorrectly
system.cpu0.iew.predictedNotTakenIncorrect        41117                       # Number of branches that were predicted not taken incorrectly
system.cpu0.iew.branchMispredicts               76931                       # Number of branch mispredicts detected at execute
system.cpu0.iew.iewExecutedInsts              4927624                       # Number of executed instructions
system.cpu0.iew.iewExecLoadInsts               744430                       # Number of load instructions executed
system.cpu0.iew.iewExecSquashedInsts            90168                       # Number of squashed instructions skipped in execute
system.cpu0.iew.exec_swp                            0                       # number of swp insts executed
system.cpu0.iew.exec_nop                            0                       # number of nop insts executed
system.cpu0.iew.exec_refs                      804790                       # number of memory reference insts executed
system.cpu0.iew.exec_branches                  586069                       # Number of branches executed
system.cpu0.iew.exec_stores                     60360                       # Number of stores executed
system.cpu0.iew.exec_rate                    0.161378                       # Inst execution rate
system.cpu0.iew.wb_sent                       4844948                       # cumulative count of insts sent to commit
system.cpu0.iew.wb_count                      4826819                       # cumulative count of insts written-back
system.cpu0.iew.wb_producers                  3552062                       # num instructions producing a value
system.cpu0.iew.wb_consumers                  5683522                       # num instructions consuming a value
system.cpu0.iew.wb_rate                      0.158077                       # insts written-back per cycle
system.cpu0.iew.wb_fanout                    0.624975                       # average fanout of values written-back
system.cpu0.commit.commitSquashedInsts        4302894                       # The number of squashed insts skipped by commit
system.cpu0.commit.commitNonSpecStalls              1                       # The number of times commit has been forced to stall to communicate backwards
system.cpu0.commit.branchMispredicts            68861                       # The number of times a branch was mispredicted
system.cpu0.commit.committed_per_cycle::samples     29864514                       # Number of insts commited each cycle
system.cpu0.commit.committed_per_cycle::mean     0.088151                       # Number of insts commited each cycle
system.cpu0.commit.committed_per_cycle::stdev     0.558523                       # Number of insts commited each cycle
system.cpu0.commit.committed_per_cycle::underflows            0      0.00%      0.00% # Number of insts commited each cycle
system.cpu0.commit.committed_per_cycle::0     28750263     96.27%     96.27% # Number of insts commited each cycle
system.cpu0.commit.committed_per_cycle::1       505435      1.69%     97.96% # Number of insts commited each cycle
system.cpu0.commit.committed_per_cycle::2       125959      0.42%     98.38% # Number of insts commited each cycle
system.cpu0.commit.committed_per_cycle::3       325858      1.09%     99.47% # Number of insts commited each cycle
system.cpu0.commit.committed_per_cycle::4        60018      0.20%     99.68% # Number of insts commited each cycle
system.cpu0.commit.committed_per_cycle::5        33357      0.11%     99.79% # Number of insts commited each cycle
system.cpu0.commit.committed_per_cycle::6         6471      0.02%     99.81% # Number of insts commited each cycle
system.cpu0.commit.committed_per_cycle::7         5248      0.02%     99.83% # Number of insts commited each cycle
system.cpu0.commit.committed_per_cycle::8        51905      0.17%    100.00% # Number of insts commited each cycle
system.cpu0.commit.committed_per_cycle::overflows            0      0.00%    100.00% # Number of insts commited each cycle
system.cpu0.commit.committed_per_cycle::min_value            0                       # Number of insts commited each cycle
system.cpu0.commit.committed_per_cycle::max_value            8                       # Number of insts commited each cycle
system.cpu0.commit.committed_per_cycle::total     29864514                       # Number of insts commited each cycle
system.cpu0.commit.committedInsts             1319008                       # Number of instructions committed
system.cpu0.commit.committedOps               2632586                       # Number of ops (including micro ops) committed
system.cpu0.commit.swp_count                        0                       # Number of s/w prefetches committed
system.cpu0.commit.refs                        517554                       # Number of memory references committed
system.cpu0.commit.loads                       480395                       # Number of loads committed
system.cpu0.commit.membars                          0                       # Number of memory barriers committed
system.cpu0.commit.branches                    457907                       # Number of branches committed
system.cpu0.commit.vec_insts                        0                       # Number of committed Vector instructions.
system.cpu0.commit.fp_insts                     14890                       # Number of committed floating point instructions.
system.cpu0.commit.int_insts                  2617521                       # Number of committed integer instructions.
system.cpu0.commit.function_calls                6579                       # Number of function calls committed.
system.cpu0.commit.op_class_0::No_OpClass         4490      0.17%      0.17% # Class of committed instruction
system.cpu0.commit.op_class_0::IntAlu         2086688     79.26%     79.43% # Class of committed instruction
system.cpu0.commit.op_class_0::IntMult            263      0.01%     79.44% # Class of committed instruction
system.cpu0.commit.op_class_0::IntDiv           10859      0.41%     79.86% # Class of committed instruction
system.cpu0.commit.op_class_0::FloatAdd         12732      0.48%     80.34% # Class of committed instruction
system.cpu0.commit.op_class_0::FloatCmp             0      0.00%     80.34% # Class of committed instruction
system.cpu0.commit.op_class_0::FloatCvt             0      0.00%     80.34% # Class of committed instruction
system.cpu0.commit.op_class_0::FloatMult            0      0.00%     80.34% # Class of committed instruction
system.cpu0.commit.op_class_0::FloatMultAcc            0      0.00%     80.34% # Class of committed instruction
system.cpu0.commit.op_class_0::FloatDiv             0      0.00%     80.34% # Class of committed instruction
system.cpu0.commit.op_class_0::FloatMisc            0      0.00%     80.34% # Class of committed instruction
system.cpu0.commit.op_class_0::FloatSqrt            0      0.00%     80.34% # Class of committed instruction
system.cpu0.commit.op_class_0::SimdAdd              0      0.00%     80.34% # Class of committed instruction
system.cpu0.commit.op_class_0::SimdAddAcc            0      0.00%     80.34% # Class of committed instruction
system.cpu0.commit.op_class_0::SimdAlu              0      0.00%     80.34% # Class of committed instruction
system.cpu0.commit.op_class_0::SimdCmp              0      0.00%     80.34% # Class of committed instruction
system.cpu0.commit.op_class_0::SimdCvt              0      0.00%     80.34% # Class of committed instruction
system.cpu0.commit.op_class_0::SimdMisc             0      0.00%     80.34% # Class of committed instruction
system.cpu0.commit.op_class_0::SimdMult             0      0.00%     80.34% # Class of committed instruction
system.cpu0.commit.op_class_0::SimdMultAcc            0      0.00%     80.34% # Class of committed instruction
system.cpu0.commit.op_class_0::SimdShift            0      0.00%     80.34% # Class of committed instruction
system.cpu0.commit.op_class_0::SimdShiftAcc            0      0.00%     80.34% # Class of committed instruction
system.cpu0.commit.op_class_0::SimdSqrt             0      0.00%     80.34% # Class of committed instruction
system.cpu0.commit.op_class_0::SimdFloatAdd            0      0.00%     80.34% # Class of committed instruction
system.cpu0.commit.op_class_0::SimdFloatAlu            0      0.00%     80.34% # Class of committed instruction
system.cpu0.commit.op_class_0::SimdFloatCmp            0      0.00%     80.34% # Class of committed instruction
system.cpu0.commit.op_class_0::SimdFloatCvt            0      0.00%     80.34% # Class of committed instruction
system.cpu0.commit.op_class_0::SimdFloatDiv            0      0.00%     80.34% # Class of committed instruction
system.cpu0.commit.op_class_0::SimdFloatMisc            0      0.00%     80.34% # Class of committed instruction
system.cpu0.commit.op_class_0::SimdFloatMult            0      0.00%     80.34% # Class of committed instruction
system.cpu0.commit.op_class_0::SimdFloatMultAcc            0      0.00%     80.34% # Class of committed instruction
system.cpu0.commit.op_class_0::SimdFloatSqrt            0      0.00%     80.34% # Class of committed instruction
system.cpu0.commit.op_class_0::MemRead         478237     18.17%     98.51% # Class of committed instruction
system.cpu0.commit.op_class_0::MemWrite         37159      1.41%     99.92% # Class of committed instruction
system.cpu0.commit.op_class_0::FloatMemRead         2158      0.08%    100.00% # Class of committed instruction
system.cpu0.commit.op_class_0::FloatMemWrite            0      0.00%    100.00% # Class of committed instruction
system.cpu0.commit.op_class_0::IprAccess            0      0.00%    100.00% # Class of committed instruction
system.cpu0.commit.op_class_0::InstPrefetch            0      0.00%    100.00% # Class of committed instruction
system.cpu0.commit.op_class_0::total          2632586                       # Class of committed instruction
system.cpu0.commit.bw_lim_events                51905                       # number cycles where commit BW limit reached
system.cpu0.rob.rob_reads                    36748089                       # The number of ROB reads
system.cpu0.rob.rob_writes                   14481778                       # The number of ROB writes
system.cpu0.timesIdled                            437                       # Number of times that the entire CPU went into an idle state and unscheduled itself
system.cpu0.idleCycles                          60987                       # Total number of cycles that the CPU has spent unscheduled due to idling
system.cpu0.committedInsts                    1319008                       # Number of Instructions Simulated
system.cpu0.committedOps                      2632586                       # Number of Ops (including micro ops) Simulated
system.cpu0.cpi                             23.149737                       # CPI: Cycles Per Instruction
system.cpu0.cpi_total                       23.149737                       # CPI: Total CPI of All Threads
system.cpu0.ipc                              0.043197                       # IPC: Instructions Per Cycle
system.cpu0.ipc_total                        0.043197                       # IPC: Total IPC of All Threads
system.cpu0.int_regfile_reads                 5069092                       # number of integer regfile reads
system.cpu0.int_regfile_writes                4189388                       # number of integer regfile writes
system.cpu0.fp_regfile_reads                    33433                       # number of floating regfile reads
system.cpu0.fp_regfile_writes                   16666                       # number of floating regfile writes
system.cpu0.cc_regfile_reads                  3104115                       # number of cc regfile reads
system.cpu0.cc_regfile_writes                 1366016                       # number of cc regfile writes
system.cpu0.misc_regfile_reads                2550026                       # number of misc regfile reads
system.cpu0.dcache.tags.pwrStateResidencyTicks::UNDEFINED  15267344125                       # Cumulative time (in ticks) in various power states
system.cpu0.dcache.tags.replacements           238802                       # number of replacements
system.cpu0.dcache.tags.tagsinuse                1024                       # Cycle average of tags in use
system.cpu0.dcache.tags.total_refs             347043                       # Total number of references to valid blocks.
system.cpu0.dcache.tags.sampled_refs           238802                       # Sample count of references to valid blocks.
system.cpu0.dcache.tags.avg_refs             1.453267                       # Average number of references to valid blocks.
system.cpu0.dcache.tags.warmup_cycle                0                       # Cycle when the warmup percentage was hit.
system.cpu0.dcache.tags.occ_blocks::cpu0.data         1024                       # Average occupied blocks per requestor
system.cpu0.dcache.tags.occ_percent::cpu0.data            1                       # Average percentage of cache occupancy
system.cpu0.dcache.tags.occ_percent::total            1                       # Average percentage of cache occupancy
system.cpu0.dcache.tags.occ_task_id_blocks::1024         1024                       # Occupied blocks per task id
system.cpu0.dcache.tags.age_task_id_blocks_1024::0          131                       # Occupied blocks per task id
system.cpu0.dcache.tags.age_task_id_blocks_1024::1          781                       # Occupied blocks per task id
system.cpu0.dcache.tags.age_task_id_blocks_1024::2          112                       # Occupied blocks per task id
system.cpu0.dcache.tags.occ_task_id_percent::1024            1                       # Percentage of cache occupancy per task id
system.cpu0.dcache.tags.tag_accesses          3324278                       # Number of tag accesses
system.cpu0.dcache.tags.data_accesses         3324278                       # Number of data accesses
system.cpu0.dcache.pwrStateResidencyTicks::UNDEFINED  15267344125                       # Cumulative time (in ticks) in various power states
system.cpu0.dcache.ReadReq_hits::cpu0.data       308324                       # number of ReadReq hits
system.cpu0.dcache.ReadReq_hits::total         308324                       # number of ReadReq hits
system.cpu0.dcache.WriteReq_hits::cpu0.data        36153                       # number of WriteReq hits
system.cpu0.dcache.WriteReq_hits::total         36153                       # number of WriteReq hits
system.cpu0.dcache.demand_hits::cpu0.data       344477                       # number of demand (read+write) hits
system.cpu0.dcache.demand_hits::total          344477                       # number of demand (read+write) hits
system.cpu0.dcache.overall_hits::cpu0.data       344477                       # number of overall hits
system.cpu0.dcache.overall_hits::total         344477                       # number of overall hits
system.cpu0.dcache.ReadReq_misses::cpu0.data       425886                       # number of ReadReq misses
system.cpu0.dcache.ReadReq_misses::total       425886                       # number of ReadReq misses
system.cpu0.dcache.WriteReq_misses::cpu0.data         1006                       # number of WriteReq misses
system.cpu0.dcache.WriteReq_misses::total         1006                       # number of WriteReq misses
system.cpu0.dcache.demand_misses::cpu0.data       426892                       # number of demand (read+write) misses
system.cpu0.dcache.demand_misses::total        426892                       # number of demand (read+write) misses
system.cpu0.dcache.overall_misses::cpu0.data       426892                       # number of overall misses
system.cpu0.dcache.overall_misses::total       426892                       # number of overall misses
system.cpu0.dcache.ReadReq_miss_latency::cpu0.data  34716324500                       # number of ReadReq miss cycles
system.cpu0.dcache.ReadReq_miss_latency::total  34716324500                       # number of ReadReq miss cycles
system.cpu0.dcache.WriteReq_miss_latency::cpu0.data     47305500                       # number of WriteReq miss cycles
system.cpu0.dcache.WriteReq_miss_latency::total     47305500                       # number of WriteReq miss cycles
system.cpu0.dcache.demand_miss_latency::cpu0.data  34763630000                       # number of demand (read+write) miss cycles
system.cpu0.dcache.demand_miss_latency::total  34763630000                       # number of demand (read+write) miss cycles
system.cpu0.dcache.overall_miss_latency::cpu0.data  34763630000                       # number of overall miss cycles
system.cpu0.dcache.overall_miss_latency::total  34763630000                       # number of overall miss cycles
system.cpu0.dcache.ReadReq_accesses::cpu0.data       734210                       # number of ReadReq accesses(hits+misses)
system.cpu0.dcache.ReadReq_accesses::total       734210                       # number of ReadReq accesses(hits+misses)
system.cpu0.dcache.WriteReq_accesses::cpu0.data        37159                       # number of WriteReq accesses(hits+misses)
system.cpu0.dcache.WriteReq_accesses::total        37159                       # number of WriteReq accesses(hits+misses)
system.cpu0.dcache.demand_accesses::cpu0.data       771369                       # number of demand (read+write) accesses
system.cpu0.dcache.demand_accesses::total       771369                       # number of demand (read+write) accesses
system.cpu0.dcache.overall_accesses::cpu0.data       771369                       # number of overall (read+write) accesses
system.cpu0.dcache.overall_accesses::total       771369                       # number of overall (read+write) accesses
system.cpu0.dcache.ReadReq_miss_rate::cpu0.data     0.580060                       # miss rate for ReadReq accesses
system.cpu0.dcache.ReadReq_miss_rate::total     0.580060                       # miss rate for ReadReq accesses
system.cpu0.dcache.WriteReq_miss_rate::cpu0.data     0.027073                       # miss rate for WriteReq accesses
system.cpu0.dcache.WriteReq_miss_rate::total     0.027073                       # miss rate for WriteReq accesses
[...]
system.l2.ReadSharedReq_accesses::total        237803                       # number of ReadSharedReq accesses(hits+misses)
system.l2.demand_accesses::cpu0.inst                3                       # number of demand (read+write) accesses
system.l2.demand_accesses::cpu0.data           238802                       # number of demand (read+write) accesses
system.l2.demand_accesses::total               238805                       # number of demand (read+write) accesses
system.l2.overall_accesses::cpu0.inst               3                       # number of overall (read+write) accesses
system.l2.overall_accesses::cpu0.data          238802                       # number of overall (read+write) accesses
system.l2.overall_accesses::total              238805                       # number of overall (read+write) accesses
system.l2.ReadExReq_miss_rate::cpu0.data     0.367367                       # miss rate for ReadExReq accesses
system.l2.ReadExReq_miss_rate::total         0.367367                       # miss rate for ReadExReq accesses
system.l2.ReadCleanReq_miss_rate::cpu0.inst            1                       # miss rate for ReadCleanReq accesses
system.l2.ReadCleanReq_miss_rate::total             1                       # miss rate for ReadCleanReq accesses
system.l2.ReadSharedReq_miss_rate::cpu0.data     0.814472                       # miss rate for ReadSharedReq accesses
system.l2.ReadSharedReq_miss_rate::total     0.814472                       # miss rate for ReadSharedReq accesses
system.l2.demand_miss_rate::cpu0.inst               1                       # miss rate for demand accesses
system.l2.demand_miss_rate::cpu0.data        0.812602                       # miss rate for demand accesses
system.l2.demand_miss_rate::total            0.812604                       # miss rate for demand accesses
system.l2.overall_miss_rate::cpu0.inst              1                       # miss rate for overall accesses
system.l2.overall_miss_rate::cpu0.data       0.812602                       # miss rate for overall accesses
system.l2.overall_miss_rate::total           0.812604                       # miss rate for overall accesses
system.l2.ReadExReq_avg_miss_latency::cpu0.data 101188.010899                       # average ReadExReq miss latency
system.l2.ReadExReq_avg_miss_latency::total 101188.010899                       # average ReadExReq miss latency
system.l2.ReadCleanReq_avg_miss_latency::cpu0.inst 151666.666667                       # average ReadCleanReq miss latency
system.l2.ReadCleanReq_avg_miss_latency::total 151666.666667                       # average ReadCleanReq miss latency
system.l2.ReadSharedReq_avg_miss_latency::cpu0.data 94880.168212                       # average ReadSharedReq miss latency
system.l2.ReadSharedReq_avg_miss_latency::total 94880.168212                       # average ReadSharedReq miss latency
system.l2.demand_avg_miss_latency::cpu0.inst 151666.666667                       # average overall miss latency
system.l2.demand_avg_miss_latency::cpu0.data 94892.097954                       # average overall miss latency
system.l2.demand_avg_miss_latency::total 94892.975667                       # average overall miss latency
system.l2.overall_avg_miss_latency::cpu0.inst 151666.666667                       # average overall miss latency
system.l2.overall_avg_miss_latency::cpu0.data 94892.097954                       # average overall miss latency
system.l2.overall_avg_miss_latency::total 94892.975667                       # average overall miss latency
system.l2.blocked_cycles::no_mshrs                  0                       # number of cycles access was blocked
system.l2.blocked_cycles::no_targets                0                       # number of cycles access was blocked
system.l2.blocked::no_mshrs                         0                       # number of cycles access was blocked
system.l2.blocked::no_targets                       0                       # number of cycles access was blocked
system.l2.avg_blocked_cycles::no_mshrs            nan                       # average number of cycles each access was blocked
system.l2.avg_blocked_cycles::no_targets          nan                       # average number of cycles each access was blocked
system.l2.writebacks::writebacks                  571                       # number of writebacks
system.l2.writebacks::total                       571                       # number of writebacks
system.l2.ReadExReq_mshr_misses::cpu0.data          367                       # number of ReadExReq MSHR misses
system.l2.ReadExReq_mshr_misses::total            367                       # number of ReadExReq MSHR misses
system.l2.ReadCleanReq_mshr_misses::cpu0.inst            3                       # number of ReadCleanReq MSHR misses
system.l2.ReadCleanReq_mshr_misses::total            3                       # number of ReadCleanReq MSHR misses
system.l2.ReadSharedReq_mshr_misses::cpu0.data       193684                       # number of ReadSharedReq MSHR misses
system.l2.ReadSharedReq_mshr_misses::total       193684                       # number of ReadSharedReq MSHR misses
system.l2.demand_mshr_misses::cpu0.inst             3                       # number of demand (read+write) MSHR misses
system.l2.demand_mshr_misses::cpu0.data        194051                       # number of demand (read+write) MSHR misses
system.l2.demand_mshr_misses::total            194054                       # number of demand (read+write) MSHR misses
system.l2.overall_mshr_misses::cpu0.inst            3                       # number of overall MSHR misses
system.l2.overall_mshr_misses::cpu0.data       194051                       # number of overall MSHR misses
system.l2.overall_mshr_misses::total           194054                       # number of overall MSHR misses
system.l2.ReadExReq_mshr_miss_latency::cpu0.data     33466000                       # number of ReadExReq MSHR miss cycles
system.l2.ReadExReq_mshr_miss_latency::total     33466000                       # number of ReadExReq MSHR miss cycles
system.l2.ReadCleanReq_mshr_miss_latency::cpu0.inst       425000                       # number of ReadCleanReq MSHR miss cycles
system.l2.ReadCleanReq_mshr_miss_latency::total       425000                       # number of ReadCleanReq MSHR miss cycles
system.l2.ReadSharedReq_mshr_miss_latency::cpu0.data  16439920500                       # number of ReadSharedReq MSHR miss cycles
system.l2.ReadSharedReq_mshr_miss_latency::total  16439920500                       # number of ReadSharedReq MSHR miss cycles
system.l2.demand_mshr_miss_latency::cpu0.inst       425000                       # number of demand (read+write) MSHR miss cycles
system.l2.demand_mshr_miss_latency::cpu0.data  16473386500                       # number of demand (read+write) MSHR miss cycles
system.l2.demand_mshr_miss_latency::total  16473811500                       # number of demand (read+write) MSHR miss cycles
system.l2.overall_mshr_miss_latency::cpu0.inst       425000                       # number of overall MSHR miss cycles
system.l2.overall_mshr_miss_latency::cpu0.data  16473386500                       # number of overall MSHR miss cycles
system.l2.overall_mshr_miss_latency::total  16473811500                       # number of overall MSHR miss cycles
system.l2.ReadExReq_mshr_miss_rate::cpu0.data     0.367367                       # mshr miss rate for ReadExReq accesses
system.l2.ReadExReq_mshr_miss_rate::total     0.367367                       # mshr miss rate for ReadExReq accesses
system.l2.ReadCleanReq_mshr_miss_rate::cpu0.inst            1                       # mshr miss rate for ReadCleanReq accesses
system.l2.ReadCleanReq_mshr_miss_rate::total            1                       # mshr miss rate for ReadCleanReq accesses
system.l2.ReadSharedReq_mshr_miss_rate::cpu0.data     0.814472                       # mshr miss rate for ReadSharedReq accesses
system.l2.ReadSharedReq_mshr_miss_rate::total     0.814472                       # mshr miss rate for ReadSharedReq accesses
system.l2.demand_mshr_miss_rate::cpu0.inst            1                       # mshr miss rate for demand accesses
system.l2.demand_mshr_miss_rate::cpu0.data     0.812602                       # mshr miss rate for demand accesses
system.l2.demand_mshr_miss_rate::total       0.812604                       # mshr miss rate for demand accesses
system.l2.overall_mshr_miss_rate::cpu0.inst            1                       # mshr miss rate for overall accesses
system.l2.overall_mshr_miss_rate::cpu0.data     0.812602                       # mshr miss rate for overall accesses
system.l2.overall_mshr_miss_rate::total      0.812604                       # mshr miss rate for overall accesses
system.l2.ReadExReq_avg_mshr_miss_latency::cpu0.data 91188.010899                       # average ReadExReq mshr miss latency
system.l2.ReadExReq_avg_mshr_miss_latency::total 91188.010899                       # average ReadExReq mshr miss latency
system.l2.ReadCleanReq_avg_mshr_miss_latency::cpu0.inst 141666.666667                       # average ReadCleanReq mshr miss latency
system.l2.ReadCleanReq_avg_mshr_miss_latency::total 141666.666667                       # average ReadCleanReq mshr miss latency
system.l2.ReadSharedReq_avg_mshr_miss_latency::cpu0.data 84880.116582                       # average ReadSharedReq mshr miss latency
system.l2.ReadSharedReq_avg_mshr_miss_latency::total 84880.116582                       # average ReadSharedReq mshr miss latency
system.l2.demand_avg_mshr_miss_latency::cpu0.inst 141666.666667                       # average overall mshr miss latency
system.l2.demand_avg_mshr_miss_latency::cpu0.data 84892.046421                       # average overall mshr miss latency
system.l2.demand_avg_mshr_miss_latency::total 84892.924135                       # average overall mshr miss latency
system.l2.overall_avg_mshr_miss_latency::cpu0.inst 141666.666667                       # average overall mshr miss latency
system.l2.overall_avg_mshr_miss_latency::cpu0.data 84892.046421                       # average overall mshr miss latency
system.l2.overall_avg_mshr_miss_latency::total 84892.924135                       # average overall mshr miss latency
system.membus.snoop_filter.tot_requests        388103                       # Total number of requests made to the snoop filter.
system.membus.snoop_filter.hit_single_requests       194055                       # Number of requests hitting in the snoop filter with a single holder of the requested data.
system.membus.snoop_filter.hit_multi_requests            0                       # Number of requests hitting in the snoop filter with multiple (>1) holders of the requested data.
system.membus.snoop_filter.tot_snoops               0                       # Total number of snoops made to the snoop filter.
system.membus.snoop_filter.hit_single_snoops            0                       # Number of snoops hitting in the snoop filter with a single holder of the requested data.
system.membus.snoop_filter.hit_multi_snoops            0                       # Number of snoops hitting in the snoop filter with multiple (>1) holders of the requested data.
system.membus.pwrStateResidencyTicks::UNDEFINED  15267344125                       # Cumulative time (in ticks) in various power states
system.membus.trans_dist::ReadResp             193688                       # Transaction distribution
system.membus.trans_dist::WritebackDirty          571                       # Transaction distribution
system.membus.trans_dist::CleanEvict           193478                       # Transaction distribution
system.membus.trans_dist::ReadExReq               367                       # Transaction distribution
system.membus.trans_dist::ReadExResp              367                       # Transaction distribution
system.membus.trans_dist::ReadSharedReq        193687                       # Transaction distribution
system.membus.pkt_count_system.l2.mem_side::system.mem_ctrls.port       582158                       # Packet count per connected master and slave (bytes)
system.membus.pkt_count_system.l2.mem_side::total       582158                       # Packet count per connected master and slave (bytes)
system.membus.pkt_count::total                 582158                       # Packet count per connected master and slave (bytes)
system.membus.pkt_size_system.l2.mem_side::system.mem_ctrls.port     12456064                       # Cumulative packet size per connected master and slave (bytes)
system.membus.pkt_size_system.l2.mem_side::total     12456064                       # Cumulative packet size per connected master and slave (bytes)
system.membus.pkt_size::total                12456064                       # Cumulative packet size per connected master and slave (bytes)
system.membus.snoops                                0                       # Total snoops (count)
system.membus.snoopTraffic                          0                       # Total snoop traffic (bytes)
system.membus.snoop_fanout::samples            194054                       # Request fanout histogram
system.membus.snoop_fanout::mean                    0                       # Request fanout histogram
system.membus.snoop_fanout::stdev                   0                       # Request fanout histogram
system.membus.snoop_fanout::underflows              0      0.00%      0.00% # Request fanout histogram
system.membus.snoop_fanout::0                  194054    100.00%    100.00% # Request fanout histogram
system.membus.snoop_fanout::1                       0      0.00%    100.00% # Request fanout histogram
system.membus.snoop_fanout::overflows               0      0.00%    100.00% # Request fanout histogram
system.membus.snoop_fanout::min_value               0                       # Request fanout histogram
system.membus.snoop_fanout::max_value               0                       # Request fanout histogram
system.membus.snoop_fanout::total              194054                       # Request fanout histogram
system.membus.reqLayer4.occupancy           458042500                       # Layer occupancy (ticks)
system.membus.reqLayer4.utilization               3.0                       # Layer utilization (%)
system.membus.respLayer1.occupancy         1049152500                       # Layer occupancy (ticks)
system.membus.respLayer1.utilization              6.9                       # Layer utilization (%)
system.tol2bus.snoop_filter.tot_requests       477610                       # Total number of requests made to the snoop filter.
system.tol2bus.snoop_filter.hit_single_requests       238805                       # Number of requests hitting in the snoop filter with a single holder of the requested data.
system.tol2bus.snoop_filter.hit_multi_requests          509                       # Number of requests hitting in the snoop filter with multiple (>1) holders of the requested data.
system.tol2bus.snoop_filter.tot_snoops             20                       # Total number of snoops made to the snoop filter.
system.tol2bus.snoop_filter.hit_single_snoops           18                       # Number of snoops hitting in the snoop filter with a single holder of the requested data.
system.tol2bus.snoop_filter.hit_multi_snoops            2                       # Number of snoops hitting in the snoop filter with multiple (>1) holders of the requested data.
system.tol2bus.pwrStateResidencyTicks::UNDEFINED  15267344125                       # Cumulative time (in ticks) in various power states
system.tol2bus.trans_dist::ReadResp            237806                       # Transaction distribution
system.tol2bus.trans_dist::WritebackDirty         2959                       # Transaction distribution
system.tol2bus.trans_dist::WritebackClean            3                       # Transaction distribution
system.tol2bus.trans_dist::CleanEvict          429913                       # Transaction distribution
system.tol2bus.trans_dist::ReadExReq              999                       # Transaction distribution
system.tol2bus.trans_dist::ReadExResp             999                       # Transaction distribution
system.tol2bus.trans_dist::ReadCleanReq             3                       # Transaction distribution
system.tol2bus.trans_dist::ReadSharedReq       237803                       # Transaction distribution
system.tol2bus.pkt_count_system.cpu0.icache.mem_side::system.l2.cpu_side            9                       # Packet count per connected master and slave (bytes)
system.tol2bus.pkt_count_system.cpu0.dcache.mem_side::system.l2.cpu_side       716406                       # Packet count per connected master and slave (bytes)
system.tol2bus.pkt_count::total                716415                       # Packet count per connected master and slave (bytes)
system.tol2bus.pkt_size_system.cpu0.icache.mem_side::system.l2.cpu_side          384                       # Cumulative packet size per connected master and slave (bytes)
system.tol2bus.pkt_size_system.cpu0.dcache.mem_side::system.l2.cpu_side     15436160                       # Cumulative packet size per connected master and slave (bytes)
system.tol2bus.pkt_size::total               15436544                       # Cumulative packet size per connected master and slave (bytes)
system.tol2bus.snoops                          194070                       # Total snoops (count)
system.tol2bus.snoopTraffic                     36544                       # Total snoop traffic (bytes)
system.tol2bus.snoop_fanout::samples           432875                       # Request fanout histogram
system.tol2bus.snoop_fanout::mean            0.001227                       # Request fanout histogram
system.tol2bus.snoop_fanout::stdev           0.035134                       # Request fanout histogram
system.tol2bus.snoop_fanout::underflows             0      0.00%      0.00% # Request fanout histogram
system.tol2bus.snoop_fanout::0                 432346     99.88%     99.88% # Request fanout histogram
system.tol2bus.snoop_fanout::1                    527      0.12%    100.00% # Request fanout histogram
system.tol2bus.snoop_fanout::2                      2      0.00%    100.00% # Request fanout histogram
system.tol2bus.snoop_fanout::3                      0      0.00%    100.00% # Request fanout histogram
system.tol2bus.snoop_fanout::4                      0      0.00%    100.00% # Request fanout histogram
system.tol2bus.snoop_fanout::5                      0      0.00%    100.00% # Request fanout histogram
system.tol2bus.snoop_fanout::6                      0      0.00%    100.00% # Request fanout histogram
system.tol2bus.snoop_fanout::7                      0      0.00%    100.00% # Request fanout histogram
system.tol2bus.snoop_fanout::8                      0      0.00%    100.00% # Request fanout histogram
system.tol2bus.snoop_fanout::overflows              0      0.00%    100.00% # Request fanout histogram
system.tol2bus.snoop_fanout::min_value              0                       # Request fanout histogram
system.tol2bus.snoop_fanout::max_value              2                       # Request fanout histogram
system.tol2bus.snoop_fanout::total             432875                       # Request fanout histogram
system.tol2bus.reqLayer0.occupancy          241196000                       # Layer occupancy (ticks)
system.tol2bus.reqLayer0.utilization              1.6                       # Layer utilization (%)
system.tol2bus.respLayer0.occupancy              4500                       # Layer occupancy (ticks)
system.tol2bus.respLayer0.utilization             0.0                       # Layer utilization (%)
system.tol2bus.respLayer1.occupancy         358203000                       # Layer occupancy (ticks)
system.tol2bus.respLayer1.utilization             2.3                       # Layer utilization (%)

---------- End Simulation Statistics   ----------
