
---------- Begin Simulation Statistics ----------
sim_seconds                                  0.015267                       # Number of seconds simulated
sim_ticks                                 15267344125                       # Number of ticks simulated
final_tick                               8824524904250                       # Number of ticks from beginning of simulation (restored from checkpoints and never reset)
sim_freq                                 1000000000000                       # Frequency of simulated ticks
host_inst_rate                              139428129                       # Simulator instruction rate (inst/s)
host_op_rate                                259729125                       # Simulator op (including micro ops) rate (op/s)
host_tick_rate                              355632540                       # Simulator tick rate (ticks/s)
host_mem_usage                                1248940                       # Number of bytes of host memory used
host_seconds                                    42.93                       # Real time elapsed on the host
sim_insts                                  5985662620                       # Number of instructions simulated
sim_ops                                   11150198000                       # Number of ops (including micro ops) simulated
system.voltage_domain.voltage                       1                       # Voltage in Volts
system.clk_domain.clock                          1000                       # Clock period in ticks
system.mem_ctrls.pwrStateResidencyTicks::UNDEFINED  15267344125                       # Cumulative time (in ticks) in various power states
system.mem_ctrls.bytes_read::cpu0.data       12678912                       # Number of bytes read from this memory
system.mem_ctrls.bytes_read::total           12678912                       # Number of bytes read from this memory
system.mem_ctrls.bytes_written::writebacks        19840                       # Number of bytes written to this memory
system.mem_ctrls.bytes_written::total           19840                       # Number of bytes written to this memory
system.mem_ctrls.num_reads::cpu0.data          198108                       # Number of read requests responded to by this memory
system.mem_ctrls.num_reads::total              198108                       # Number of read requests responded to by this memory
system.mem_ctrls.num_writes::writebacks           310                       # Number of write requests responded to by this memory
system.mem_ctrls.num_writes::total                310                       # Number of write requests responded to by this memory
system.mem_ctrls.bw_read::cpu0.data         830459568                       # Total read bandwidth from this memory (bytes/s)
system.mem_ctrls.bw_read::total             830459568                       # Total read bandwidth from this memory (bytes/s)
system.mem_ctrls.bw_write::writebacks         1299506                       # Write bandwidth from this memory (bytes/s)
system.mem_ctrls.bw_write::total              1299506                       # Write bandwidth from this memory (bytes/s)
system.mem_ctrls.bw_total::writebacks         1299506                       # Total bandwidth to/from this memory (bytes/s)
system.mem_ctrls.bw_total::cpu0.data        830459568                       # Total bandwidth to/from this memory (bytes/s)
system.mem_ctrls.bw_total::total            831759073                       # Total bandwidth to/from this memory (bytes/s)
system.mem_ctrls.readReqs                      198110                       # Number of read requests accepted
system.mem_ctrls.writeReqs                        310                       # Number of write requests accepted
system.mem_ctrls.readBursts                    198110                       # Number of DRAM read bursts, including those serviced by the write queue
system.mem_ctrls.writeBursts                      310                       # Number of DRAM write bursts, including those merged in the write queue
system.mem_ctrls.bytesReadDRAM               12676224                       # Total number of bytes read from DRAM
system.mem_ctrls.bytesReadWrQ                    2816                       # Total number of bytes read from write queue
system.mem_ctrls.bytesWritten                   19456                       # Total number of bytes written to DRAM
system.mem_ctrls.bytesReadSys                12679040                       # Total read bytes from the system interface side
system.mem_ctrls.bytesWrittenSys                19840                       # Total written bytes from the system interface side
system.mem_ctrls.servicedByWrQ                     44                       # Number of DRAM read bursts serviced by the write queue
system.mem_ctrls.mergedWrBursts                     2                       # Number of DRAM write bursts merged with an existing one
system.mem_ctrls.neitherReadNorWriteReqs            0                       # Number of requests that are neither read nor write
system.mem_ctrls.perBankRdBursts::0             12322                       # Per bank write bursts
system.mem_ctrls.perBankRdBursts::1             12222                       # Per bank write bursts
system.mem_ctrls.perBankRdBursts::2             12418                       # Per bank write bursts
system.mem_ctrls.perBankRdBursts::3             12578                       # Per bank write bursts
system.mem_ctrls.perBankRdBursts::4             12805                       # Per bank write bursts
system.mem_ctrls.perBankRdBursts::5             12172                       # Per bank write bursts
system.mem_ctrls.perBankRdBursts::6             12519                       # Per bank write bursts
system.mem_ctrls.perBankRdBursts::7             12326                       # Per bank write bursts
system.mem_ctrls.perBankRdBursts::8             12221                       # Per bank write bursts
system.mem_ctrls.perBankRdBursts::9             12209                       # Per bank write bursts
system.mem_ctrls.perBankRdBursts::10            12468                       # Per bank write bursts
system.mem_ctrls.perBankRdBursts::11            12288                       # Per bank write bursts
system.mem_ctrls.perBankRdBursts::12            12388                       # Per bank write bursts
system.mem_ctrls.perBankRdBursts::13            12316                       # Per bank write bursts
system.mem_ctrls.perBankRdBursts::14            12524                       # Per bank write bursts
system.mem_ctrls.perBankRdBursts::15            12290                       # Per bank write bursts
system.mem_ctrls.perBankWrBursts::0                15                       # Per bank write bursts
system.mem_ctrls.perBankWrBursts::1                 1                       # Per bank write bursts
system.mem_ctrls.perBankWrBursts::2                 0                       # Per bank write bursts
system.mem_ctrls.perBankWrBursts::3               207                       # Per bank write bursts
system.mem_ctrls.perBankWrBursts::4                71                       # Per bank write bursts
system.mem_ctrls.perBankWrBursts::5                 0                       # Per bank write bursts
system.mem_ctrls.perBankWrBursts::6                 0                       # Per bank write bursts
system.mem_ctrls.perBankWrBursts::7                 0                       # Per bank write bursts
system.mem_ctrls.perBankWrBursts::8                 0                       # Per bank write bursts
system.mem_ctrls.perBankWrBursts::9                10                       # Per bank write bursts
system.mem_ctrls.perBankWrBursts::10                0                       # Per bank write bursts
system.mem_ctrls.perBankWrBursts::11                0                       # Per bank write bursts
system.mem_ctrls.perBankWrBursts::12                0                       # Per bank write bursts
system.mem_ctrls.perBankWrBursts::13                0                       # Per bank write bursts
system.mem_ctrls.perBankWrBursts::14                0                       # Per bank write bursts
system.mem_ctrls.perBankWrBursts::15                0                       # Per bank write bursts
system.mem_ctrls.numRdRetry                         0                       # Number of times read queue was full causing retry
system.mem_ctrls.numWrRetry                         0                       # Number of times write queue was full causing retry
system.mem_ctrls.totGap                   15267371000                       # Total gap between requests
system.mem_ctrls.readPktSize::0                     0                       # Read request sizes (log2)
system.mem_ctrls.readPktSize::1                     0                       # Read request sizes (log2)
system.mem_ctrls.readPktSize::2                     0                       # Read request sizes (log2)
system.mem_ctrls.readPktSize::3                     0                       # Read request sizes (log2)
system.mem_ctrls.readPktSize::4                     0                       # Read request sizes (log2)
system.mem_ctrls.readPktSize::5                     0                       # Read request sizes (log2)
system.mem_ctrls.readPktSize::6                198110                       # Read request sizes (log2)
system.mem_ctrls.writePktSize::0                    0                       # Write request sizes (log2)
system.mem_ctrls.writePktSize::1                    0                       # Write request sizes (log2)
system.mem_ctrls.writePktSize::2                    0                       # Write request sizes (log2)
system.mem_ctrls.writePktSize::3                    0                       # Write request sizes (log2)
system.mem_ctrls.writePktSize::4                    0                       # Write request sizes (log2)
system.mem_ctrls.writePktSize::5                    0                       # Write request sizes (log2)
system.mem_ctrls.writePktSize::6                  310                       # Write request sizes (log2)
system.mem_ctrls.rdQLenPdf::0                  149355                       # What read queue length does an incoming req see
system.mem_ctrls.rdQLenPdf::1                   45558                       # What read queue length does an incoming req see
system.mem_ctrls.rdQLenPdf::2                    3125                       # What read queue length does an incoming req see
system.mem_ctrls.rdQLenPdf::3                      28                       # What read queue length does an incoming req see
system.mem_ctrls.rdQLenPdf::4                       0                       # What read queue length does an incoming req see
system.mem_ctrls.rdQLenPdf::5                       0                       # What read queue length does an incoming req see
system.mem_ctrls.rdQLenPdf::6                       0                       # What read queue length does an incoming req see
system.mem_ctrls.rdQLenPdf::7                       0                       # What read queue length does an incoming req see
system.mem_ctrls.rdQLenPdf::8                       0                       # What read queue length does an incoming req see
system.mem_ctrls.rdQLenPdf::9                       0                       # What read queue length does an incoming req see
system.mem_ctrls.rdQLenPdf::10                      0                       # What read queue length does an incoming req see
system.mem_ctrls.rdQLenPdf::11                      0                       # What read queue length does an incoming req see
system.mem_ctrls.rdQLenPdf::12                      0                       # What read queue length does an incoming req see
system.mem_ctrls.rdQLenPdf::13                      0                       # What read queue length does an incoming req see
system.mem_ctrls.rdQLenPdf::14                      0                       # What read queue length does an incoming req see
system.mem_ctrls.rdQLenPdf::15                      0                       # What read queue length does an incoming req see
system.mem_ctrls.rdQLenPdf::16                      0                       # What read queue length does an incoming req see
system.mem_ctrls.rdQLenPdf::17                      0                       # What read queue length does an incoming req see
system.mem_ctrls.rdQLenPdf::18                      0                       # What read queue length does an incoming req see
system.mem_ctrls.rdQLenPdf::19                      0                       # What read queue length does an incoming req see
system.mem_ctrls.rdQLenPdf::20                      0                       # What read queue length does an incoming req see
system.mem_ctrls.rdQLenPdf::21                      0                       # What read queue length does an incoming req see
system.mem_ctrls.rdQLenPdf::22                      0                       # What read queue length does an incoming req see
system.mem_ctrls.rdQLenPdf::23                      0                       # What read queue length does an incoming req see
system.mem_ctrls.rdQLenPdf::24                      0                       # What read queue length does an incoming req see
system.mem_ctrls.rdQLenPdf::25                      0                       # What read queue length does an incoming req see
system.mem_ctrls.rdQLenPdf::26                      0                       # What read queue length does an incoming req see
system.mem_ctrls.rdQLenPdf::27                      0                       # What read queue length does an incoming req see
system.mem_ctrls.rdQLenPdf::28                      0                       # What read queue length does an incoming req see
system.mem_ctrls.rdQLenPdf::29                      0                       # What read queue length does an incoming req see
system.mem_ctrls.rdQLenPdf::30                      0                       # What read queue length does an incoming req see
system.mem_ctrls.rdQLenPdf::31                      0                       # What read queue length does an incoming req see
system.mem_ctrls.wrQLenPdf::0                       0                       # What write queue length does an incoming req see
system.mem_ctrls.wrQLenPdf::1                       0                       # What write queue length does an incoming req see
system.mem_ctrls.wrQLenPdf::2                       0                       # What write queue length does an incoming req see
system.mem_ctrls.wrQLenPdf::3                       0                       # What write queue length does an incoming req see
system.mem_ctrls.wrQLenPdf::4                       0                       # What write queue length does an incoming req see
system.mem_ctrls.wrQLenPdf::5                       0                       # What write queue length does an incoming req see
system.mem_ctrls.wrQLenPdf::6                       0                       # What write queue length does an incoming req see
system.mem_ctrls.wrQLenPdf::7                       0                       # What write queue length does an incoming req see
system.mem_ctrls.wrQLenPdf::8                       0                       # What write queue length does an incoming req see
system.mem_ctrls.wrQLenPdf::9                       0                       # What write queue length does an incoming req see
system.mem_ctrls.wrQLenPdf::10                      0                       # What write queue length does an incoming req see
system.mem_ctrls.wrQLenPdf::11                      0                       # What write queue length does an incoming req see
system.mem_ctrls.wrQLenPdf::12                      0                       # What write queue length does an incoming req see
system.mem_ctrls.wrQLenPdf::13                      0                       # What write queue length does an incoming req see
system.mem_ctrls.wrQLenPdf::14                      0                       # What write queue length does an incoming req see
system.mem_ctrls.wrQLenPdf::15                      0                       # What write queue length does an incoming req see
system.mem_ctrls.wrQLenPdf::16                      0                       # What write queue length does an incoming req see
system.mem_ctrls.wrQLenPdf::17                     18                       # What write queue length does an incoming req see
system.mem_ctrls.wrQLenPdf::18                     19                       # What write queue length does an incoming req see
system.mem_ctrls.wrQLenPdf::19                     19                       # What write queue length does an incoming req see
system.mem_ctrls.wrQLenPdf::20                     19                       # What write queue length does an incoming req see
system.mem_ctrls.wrQLenPdf::21                     19                       # What write queue length does an incoming req see
system.mem_ctrls.wrQLenPdf::22                     19                       # What write queue length does an incoming req see
system.mem_ctrls.wrQLenPdf::23                     19                       # What write queue length does an incoming req see
system.mem_ctrls.wrQLenPdf::24                     19                       # What write queue length does an incoming req see
system.mem_ctrls.wrQLenPdf::25                     19                       # What write queue length does an incoming req see
system.mem_ctrls.wrQLenPdf::26                     20                       # What write queue length does an incoming req see
system.mem_ctrls.wrQLenPdf::27                     20                       # What write queue length does an incoming req see
system.mem_ctrls.wrQLenPdf::28                     20                       # What write queue length does an incoming req see
system.mem_ctrls.wrQLenPdf::29                     20                       # What write queue length does an incoming req see
system.mem_ctrls.wrQLenPdf::30                     19                       # What write queue length does an incoming req see
system.mem_ctrls.wrQLenPdf::31                     19                       # What write queue length does an incoming req see
system.mem_ctrls.wrQLenPdf::32                     20                       # What write queue length does an incoming req see
system.mem_ctrls.wrQLenPdf::33                      0                       # What write queue length does an incoming req see
system.mem_ctrls.wrQLenPdf::34                      0                       # What write queue length does an incoming req see
system.mem_ctrls.wrQLenPdf::35                      0                       # What write queue length does an incoming req see
system.mem_ctrls.wrQLenPdf::36                      0                       # What write queue length does an incoming req see
system.mem_ctrls.wrQLenPdf::37                      0                       # What write queue length does an incoming req see
system.mem_ctrls.wrQLenPdf::38                      0                       # What write queue length does an incoming req see
system.mem_ctrls.wrQLenPdf::39                      0                       # What write queue length does an incoming req see
system.mem_ctrls.wrQLenPdf::40                      0                       # What write queue length does an incoming req see
system.mem_ctrls.wrQLenPdf::41                      0                       # What write queue length does an incoming req see
system.mem_ctrls.wrQLenPdf::42                      0                       # What write queue length does an incoming req see
system.mem_ctrls.wrQLenPdf::43                      0                       # What write queue length does an incoming req see
system.mem_ctrls.wrQLenPdf::44                      0                       # What write queue length does an incoming req see
system.mem_ctrls.wrQLenPdf::45                      0                       # What write queue length does an incoming req see
system.mem_ctrls.wrQLenPdf::46                      0                       # What write queue length does an incoming req see
system.mem_ctrls.wrQLenPdf::47                      0                       # What write queue length does an incoming req see
system.mem_ctrls.wrQLenPdf::48                      0                       # What write queue length does an incoming req see
system.mem_ctrls.wrQLenPdf::49                      0                       # What write queue length does an incoming req see
system.mem_ctrls.wrQLenPdf::50                      0                       # What write queue length does an incoming req see
system.mem_ctrls.wrQLenPdf::51                      0                       # What write queue length does an incoming req see
system.mem_ctrls.wrQLenPdf::52                      0                       # What write queue length does an incoming req see
system.mem_ctrls.wrQLenPdf::53                      0                       # What write queue length does an incoming req see
system.mem_ctrls.wrQLenPdf::54                      0                       # What write queue length does an incoming req see
system.mem_ctrls.wrQLenPdf::55                      0                       # What write queue length does an incoming req see
system.mem_ctrls.wrQLenPdf::56                      0                       # What write queue length does an incoming req see
system.mem_ctrls.wrQLenPdf::57                      0                       # What write queue length does an incoming req see
system.mem_ctrls.wrQLenPdf::58                      0                       # What write queue length does an incoming req see
system.mem_ctrls.wrQLenPdf::59                      0                       # What write queue length does an incoming req see
system.mem_ctrls.wrQLenPdf::60                      0                       # What write queue length does an incoming req see
system.mem_ctrls.wrQLenPdf::61                      0                       # What write queue length does an incoming req see
system.mem_ctrls.wrQLenPdf::62                      0                       # What write queue length does an incoming req see
system.mem_ctrls.wrQLenPdf::63                      0                       # What write queue length does an incoming req see
system.mem_ctrls.bytesPerActivate::samples        97890                       # Bytes accessed per row activation
system.mem_ctrls.bytesPerActivate::mean    129.704444                       # Bytes accessed per row activation
system.mem_ctrls.bytesPerActivate::gmean   111.310907                       # Bytes accessed per row activation
system.mem_ctrls.bytesPerActivate::stdev    77.968877                       # Bytes accessed per row activation
system.mem_ctrls.bytesPerActivate::0-127        41622     42.52%     42.52% # Bytes accessed per row activation
system.mem_ctrls.bytesPerActivate::128-255        44722     45.69%     88.21% # Bytes accessed per row activation
system.mem_ctrls.bytesPerActivate::256-383         9944     10.16%     98.36% # Bytes accessed per row activation
system.mem_ctrls.bytesPerActivate::384-511         1397      1.43%     99.79% # Bytes accessed per row activation
system.mem_ctrls.bytesPerActivate::512-639          172      0.18%     99.97% # Bytes accessed per row activation
system.mem_ctrls.bytesPerActivate::640-767           14      0.01%     99.98% # Bytes accessed per row activation
system.mem_ctrls.bytesPerActivate::768-895            9      0.01%     99.99% # Bytes accessed per row activation
system.mem_ctrls.bytesPerActivate::896-1023            2      0.00%     99.99% # Bytes accessed per row activation
system.mem_ctrls.bytesPerActivate::1024-1151            8      0.01%    100.00% # Bytes accessed per row activation
system.mem_ctrls.bytesPerActivate::total        97890                       # Bytes accessed per row activation
system.mem_ctrls.rdPerTurnAround::samples           19                       # Reads before turning the bus around for writes
system.mem_ctrls.rdPerTurnAround::mean   10211.578947                       # Reads before turning the bus around for writes
system.mem_ctrls.rdPerTurnAround::gmean  10129.503397                       # Reads before turning the bus around for writes
system.mem_ctrls.rdPerTurnAround::stdev   1339.525178                       # Reads before turning the bus around for writes
system.mem_ctrls.rdPerTurnAround::7680-8191            2     10.53%     10.53% # Reads before turning the bus around for writes
system.mem_ctrls.rdPerTurnAround::8704-9215            1      5.26%     15.79% # Reads before turning the bus around for writes
system.mem_ctrls.rdPerTurnAround::9216-9727            5     26.32%     42.11% # Reads before turning the bus around for writes
system.mem_ctrls.rdPerTurnAround::9728-10239            1      5.26%     47.37% # Reads before turning the bus around for writes
system.mem_ctrls.rdPerTurnAround::10240-10751            5     26.32%     73.68% # Reads before turning the bus around for writes
system.mem_ctrls.rdPerTurnAround::10752-11263            1      5.26%     78.95% # Reads before turning the bus around for writes
system.mem_ctrls.rdPerTurnAround::11264-11775            2     10.53%     89.47% # Reads before turning the bus around for writes
system.mem_ctrls.rdPerTurnAround::11776-12287            1      5.26%     94.74% # Reads before turning the bus around for writes
system.mem_ctrls.rdPerTurnAround::13312-13823            1      5.26%    100.00% # Reads before turning the bus around for writes
system.mem_ctrls.rdPerTurnAround::total            19                       # Reads before turning the bus around for writes
system.mem_ctrls.wrPerTurnAround::samples           19                       # Writes before turning the bus around for reads
system.mem_ctrls.wrPerTurnAround::mean             16                       # Writes before turning the bus around for reads
system.mem_ctrls.wrPerTurnAround::gmean     16.000000                       # Writes before turning the bus around for reads
system.mem_ctrls.wrPerTurnAround::16               19    100.00%    100.00% # Writes before turning the bus around for reads
system.mem_ctrls.wrPerTurnAround::total            19                       # Writes before turning the bus around for reads
system.mem_ctrls.totQLat                   4765772500                       # Total ticks spent queuing
system.mem_ctrls.totMemAccLat              8479510000                       # Total ticks spent from burst creation until serviced by the DRAM
system.mem_ctrls.totBusLat                  990330000                       # Total ticks spent in databus transfers
system.mem_ctrls.avgQLat                     24061.54                       # Average queueing delay per DRAM burst
system.mem_ctrls.avgBusLat                    5000.00                       # Average bus latency per DRAM burst
system.mem_ctrls.avgMemAccLat                42811.54                       # Average memory access latency per DRAM burst
system.mem_ctrls.avgRdBW                       830.28                       # Average DRAM read bandwidth in MiByte/s
system.mem_ctrls.avgWrBW                         1.27                       # Average achieved write bandwidth in MiByte/s
system.mem_ctrls.avgRdBWSys                    830.47                       # Average system read bandwidth in MiByte/s
system.mem_ctrls.avgWrBWSys                      1.30                       # Average system write bandwidth in MiByte/s
system.mem_ctrls.peakBW                      12800.00                       # Theoretical peak bandwidth in MiByte/s
system.mem_ctrls.busUtil                         6.50                       # Data bus utilization in percentage
system.mem_ctrls.busUtilRead                     6.49                       # Data bus utilization in percentage for reads
system.mem_ctrls.busUtilWrite                    0.01                       # Data bus utilization in percentage for writes
system.mem_ctrls.avgRdQLen                       1.32                       # Average read queue length when enqueuing
system.mem_ctrls.avgWrQLen                      25.79                       # Average write queue length when enqueuing
system.mem_ctrls.readRowHits                   100228                       # Number of row buffer hits during reads
system.mem_ctrls.writeRowHits                     261                       # Number of row buffer hits during writes
system.mem_ctrls.readRowHitRate                 50.60                       # Row buffer hit rate for reads
system.mem_ctrls.writeRowHitRate                84.74                       # Row buffer hit rate for writes
system.mem_ctrls.avgGap                      76944.72                       # Average gap between requests
system.mem_ctrls.pageHitRate                    50.66                       # Row buffer hit rate, read and write combined
system.mem_ctrls_0.actEnergy                349731480                       # Energy for activate commands per rank (pJ)
system.mem_ctrls_0.preEnergy                185894280                       # Energy for precharge commands per rank (pJ)
system.mem_ctrls_0.readEnergy               709423260                       # Energy for read commands per rank (pJ)
system.mem_ctrls_0.writeEnergy                1534680                       # Energy for write commands per rank (pJ)
system.mem_ctrls_0.refreshEnergy         1205309040.000000                       # Energy for refresh commands per rank (pJ)
system.mem_ctrls_0.actBackEnergy           1649301270                       # Energy for active background per rank (pJ)
system.mem_ctrls_0.preBackEnergy             24250080                       # Energy for precharge background per rank (pJ)
system.mem_ctrls_0.actPowerDownEnergy      5166985590                       # Energy for active power-down per rank (pJ)
system.mem_ctrls_0.prePowerDownEnergy        98378880                       # Energy for precharge power-down per rank (pJ)
system.mem_ctrls_0.selfRefreshEnergy                0                       # Energy for self refresh per rank (pJ)
system.mem_ctrls_0.totalEnergy             9390808560                       # Total energy per rank (pJ)
system.mem_ctrls_0.averagePower            615.091170                       # Core power per rank (mW)
system.mem_ctrls_0.totalIdleTime          11586789000                       # Total Idle time Per DRAM Rank
system.mem_ctrls_0.memoryStateTime::IDLE      9870000                       # Time in different power states
system.mem_ctrls_0.memoryStateTime::REF     509860000                       # Time in different power states
system.mem_ctrls_0.memoryStateTime::SREF            0                       # Time in different power states
system.mem_ctrls_0.memoryStateTime::PRE_PDN    256600750                       # Time in different power states
system.mem_ctrls_0.memoryStateTime::ACT    3160825125                       # Time in different power states
system.mem_ctrls_0.memoryStateTime::ACT_PDN  11330188250                       # Time in different power states
system.mem_ctrls_1.actEnergy                349138860                       # Energy for activate commands per rank (pJ)
system.mem_ctrls_1.preEnergy                185598270                       # Energy for precharge commands per rank (pJ)
system.mem_ctrls_1.readEnergy               704746560                       # Energy for read commands per rank (pJ)
system.mem_ctrls_1.writeEnergy                  52200                       # Energy for write commands per rank (pJ)
system.mem_ctrls_1.refreshEnergy         1205309040.000000                       # Energy for refresh commands per rank (pJ)
system.mem_ctrls_1.actBackEnergy           1640921700                       # Energy for active background per rank (pJ)
system.mem_ctrls_1.preBackEnergy             24449280                       # Energy for precharge background per rank (pJ)
system.mem_ctrls_1.actPowerDownEnergy      5141270610                       # Energy for active power-down per rank (pJ)
system.mem_ctrls_1.prePowerDownEnergy       126890880                       # Energy for precharge power-down per rank (pJ)
system.mem_ctrls_1.selfRefreshEnergy                0                       # Energy for self refresh per rank (pJ)
system.mem_ctrls_1.totalEnergy             9378377400                       # Total energy per rank (pJ)
system.mem_ctrls_1.averagePower            614.276938                       # Core power per rank (mW)
system.mem_ctrls_1.totalIdleTime          11603317875                       # Total Idle time Per DRAM Rank
system.mem_ctrls_1.memoryStateTime::IDLE      9498000                       # Time in different power states
system.mem_ctrls_1.memoryStateTime::REF     509860000                       # Time in different power states
system.mem_ctrls_1.memoryStateTime::SREF            0                       # Time in different power states
system.mem_ctrls_1.memoryStateTime::PRE_PDN    330098250                       # Time in different power states
system.mem_ctrls_1.memoryStateTime::ACT    3144064000                       # Time in different power states
system.mem_ctrls_1.memoryStateTime::ACT_PDN  11273823875                       # Time in different power states
system.pwrStateResidencyTicks::UNDEFINED  15267344125                       # Cumulative time (in ticks) in various power states
system.cpu0.branchPred.lookups                1387579                       # Number of BP lookups
system.cpu0.branchPred.condPredicted          1387579                       # Number of conditional branches predicted
system.cpu0.branchPred.condIncorrect            55371                       # Number of conditional branches incorrect
system.cpu0.branchPred.BTBLookups             1090269                       # Number of BTB lookups
system.cpu0.branchPred.BTBHits                      0                       # Number of BTB hits
system.cpu0.branchPred.BTBCorrect                   0                       # Number of correct BTB predictions (this stat may not work properly.
system.cpu0.branchPred.BTBHitPct             0.000000                       # BTB Hit Percentage
system.cpu0.branchPred.usedRAS                  35529                       # Number of times the RAS was used to get a target.
system.cpu0.branchPred.RASInCorrect              6161                       # Number of incorrect RAS predictions.
system.cpu0.branchPred.indirectLookups        1090269                       # Number of indirect predictor lookups.
system.cpu0.branchPred.indirectHits            598363                       # Number of indirect target hits.
system.cpu0.branchPred.indirectMisses          491906                       # Number of indirect misses.
system.cpu0.branchPredindirectMispredicted        16401                       # Number of mispredicted indirect branches.
system.cpu_voltage_domain.voltage                   1                       # Voltage in Volts
system.cpu_clk_domain.clock                       500                       # Clock period in ticks
system.cpu0.dtb.walker.pwrStateResidencyTicks::UNDEFINED  15267344125                       # Cumulative time (in ticks) in various power states
system.cpu0.dtb.rdAccesses                     648812                       # TLB accesses on read requests
system.cpu0.dtb.wrAccesses                      39896                       # TLB accesses on write requests
system.cpu0.dtb.rdMisses                       139688                       # TLB misses on read requests
system.cpu0.dtb.wrMisses                          717                       # TLB misses on write requests
system.cpu0.apic_clk_domain.clock                8000                       # Clock period in ticks
system.cpu0.interrupts.pwrStateResidencyTicks::UNDEFINED  15267344125                       # Cumulative time (in ticks) in various power states
system.cpu0.itb.walker.pwrStateResidencyTicks::UNDEFINED  15267344125                       # Cumulative time (in ticks) in various power states
system.cpu0.itb.rdAccesses                          0                       # TLB accesses on read requests
system.cpu0.itb.wrAccesses                    1173242                       # TLB accesses on write requests
system.cpu0.itb.rdMisses                            0                       # TLB misses on read requests
system.cpu0.itb.wrMisses                         5172                       # TLB misses on write requests
system.cpu0.workload.numSyscalls                    0                       # Number of system calls
system.cpu0.pwrStateResidencyTicks::ON    15267344125                       # Cumulative time (in ticks) in various power states
system.cpu0.numCycles                        30534688                       # number of cpu cycles simulated
system.cpu0.numWorkItemsStarted                     0                       # number of work items this cpu started
system.cpu0.numWorkItemsCompleted                   0                       # number of work items this cpu completed
system.cpu0.fetch.icacheStallCycles           1196406                       # Number of cycles fetch is stalled on an Icache miss
system.cpu0.fetch.Insts                       3994518                       # Number of instructions fetch has processed
system.cpu0.fetch.Branches                    1387579                       # Number of branches that fetch encountered
system.cpu0.fetch.predictedBranches            633892                       # Number of branches that fetch has predicted taken
system.cpu0.fetch.Cycles                     29169070                       # Number of cycles fetch has run and was not squashing or blocked
system.cpu0.fetch.SquashCycles                 113964                       # Number of cycles fetch has spent squashing
system.cpu0.fetch.TlbCycles                      2426                       # Number of cycles fetch has spent waiting for tlb
system.cpu0.fetch.MiscStallCycles                1188                       # Number of cycles fetch has spent waiting on interrupts, or bad addresses, or out of MSHRs
system.cpu0.fetch.PendingTrapStallCycles        47310                       # Number of stall cycles due to pending traps
system.cpu0.fetch.CacheLines                  1168070                       # Number of cache lines fetched
system.cpu0.fetch.IcacheSquashes                 5356                       # Number of outstanding Icache misses that were squashed
system.cpu0.fetch.ItlbSquashes                      7                       # Number of outstanding ITLB misses that were squashed
system.cpu0.fetch.rateDist::samples          30473382                       # Number of instructions fetched each cycle (Total)
system.cpu0.fetch.rateDist::mean             0.263425                       # Number of instructions fetched each cycle (Total)
system.cpu0.fetch.rateDist::stdev            1.293258                       # Number of instructions fetched each cycle (Total)
system.cpu0.fetch.rateDist::underflows              0      0.00%      0.00% # Number of instructions fetched each cycle (Total)
system.cpu0.fetch.rateDist::0                28901535     94.84%     94.84% # Number of instructions fetched each cycle (Total)
system.cpu0.fetch.rateDist::1                   16704      0.05%     94.90% # Number of instructions fetched each cycle (Total)
system.cpu0.fetch.rateDist::2                  592476      1.94%     96.84% # Number of instructions fetched each cycle (Total)
system.cpu0.fetch.rateDist::3                   19750      0.06%     96.91% # Number of instructions fetched each cycle (Total)
system.cpu0.fetch.rateDist::4                  114584      0.38%     97.28% # Number of instructions fetched each cycle (Total)
system.cpu0.fetch.rateDist::5                   49288      0.16%     97.44% # Number of instructions fetched each cycle (Total)
system.cpu0.fetch.rateDist::6                   75942      0.25%     97.69% # Number of instructions fetched each cycle (Total)
system.cpu0.fetch.rateDist::7                   18701      0.06%     97.75% # Number of instructions fetched each cycle (Total)
system.cpu0.fetch.rateDist::8                  684402      2.25%    100.00% # Number of instructions fetched each cycle (Total)
system.cpu0.fetch.rateDist::overflows               0      0.00%    100.00% # Number of instructions fetched each cycle (Total)
system.cpu0.fetch.rateDist::min_value               0                       # Number of instructions fetched each cycle (Total)
system.cpu0.fetch.rateDist::max_value               8                       # Number of instructions fetched each cycle (Total)
system.cpu0.fetch.rateDist::total            30473382                       # Number of instructions fetched each cycle (Total)
system.cpu0.fetch.branchRate                 0.045443                       # Number of branch fetches per cycle
system.cpu0.fetch.rate                       0.130819                       # Number of inst fetches per cycle
system.cpu0.decode.IdleCycles                  577612                       # Number of cycles decode is idle
system.cpu0.decode.BlockedCycles             28829124                       # Number of cycles decode is blocked
system.cpu0.decode.RunCycles                   724506                       # Number of cycles decode is running
system.cpu0.decode.UnblockCycles               285158                       # Number of cycles decode is unblocking
system.cpu0.decode.SquashCycles                 56982                       # Number of cycles decode is squashing
system.cpu0.decode.DecodedInsts               6563797                       # Number of instructions handled by decode
system.cpu0.rename.SquashCycles                 56982                       # Number of cycles rename is squashing
system.cpu0.rename.IdleCycles                  658299                       # Number of cycles rename is idle
system.cpu0.rename.BlockCycles               27651515                       # Number of cycles rename is blocking
system.cpu0.rename.serializeStallCycles         15068                       # count of cycles rename stalled for serializing inst
system.cpu0.rename.RunCycles                   854580                       # Number of cycles rename is running
system.cpu0.rename.UnblockCycles              1236938                       # Number of cycles rename is unblocking
system.cpu0.rename.RenamedInsts               6306173                       # Number of instructions processed by rename
system.cpu0.rename.ROBFullEvents                55384                       # Number of times rename has blocked due to ROB full
system.cpu0.rename.IQFullEvents                978494                       # Number of times rename has blocked due to IQ full
system.cpu0.rename.LQFullEvents                215830                       # Number of times rename has blocked due to LQ full
system.cpu0.rename.SQFullEvents                   111                       # Number of times rename has blocked due to SQ full
system.cpu0.rename.RenamedOperands            7516894                       # Number of destination operands rename has renamed
system.cpu0.rename.RenameLookups             17604408                       # Number of register rename lookups that rename has made
system.cpu0.rename.int_rename_lookups         8211419                       # Number of integer rename lookups
system.cpu0.rename.fp_rename_lookups            26274                       # Number of floating rename lookups
system.cpu0.rename.CommittedMaps              2706184                       # Number of HB maps that are committed
system.cpu0.rename.UndoneMaps                 4810711                       # Number of HB maps that are undone due to squashing
system.cpu0.rename.serializingInsts               294                       # count of serializing insts renamed
system.cpu0.rename.tempSerializingInsts           338                       # count of temporary serializing insts renamed
system.cpu0.rename.skidInsts                  1846761                       # count of insts added to the skid buffer
system.cpu0.memDep0.insertedLoads             1153672                       # Number of loads inserted to the mem dependence unit.
system.cpu0.memDep0.insertedStores              59021                       # Number of stores inserted to the mem dependence unit.
system.cpu0.memDep0.conflictingLoads             3741                       # Number of conflicting loads.
system.cpu0.memDep0.conflictingStores            3579                       # Number of conflicting stores.
system.cpu0.iq.iqInstsAdded                   6014336                       # Number of instructions added to the IQ (excludes non-spec)
system.cpu0.iq.iqNonSpecInstsAdded               3497                       # Number of non-speculative instructions added to the IQ
system.cpu0.iq.iqInstsIssued                  4287356                       # Number of instructions issued
system.cpu0.iq.iqSquashedInstsIssued             3555                       # Number of squashed instructions issued
system.cpu0.iq.iqSquashedInstsExamined        3758075                       # Number of squashed instructions iterated over during squash; mainly for profiling
system.cpu0.iq.iqSquashedOperandsExamined      7962364                       # Number of squashed operands that are examined and possibly removed from graph
system.cpu0.iq.iqSquashedNonSpecRemoved          3497                       # Number of squashed non-spec instructions that were removed
system.cpu0.iq.issued_per_cycle::samples     30473382                       # Number of insts issued each cycle
system.cpu0.iq.issued_per_cycle::mean        0.140692                       # Number of insts issued each cycle
system.cpu0.iq.issued_per_cycle::stdev       0.674953                       # Number of insts issued each cycle
system.cpu0.iq.issued_per_cycle::underflows            0      0.00%      0.00% # Number of insts issued each cycle
system.cpu0.iq.issued_per_cycle::0           28655557     94.03%     94.03% # Number of insts issued each cycle
system.cpu0.iq.issued_per_cycle::1             749448      2.46%     96.49% # Number of insts issued each cycle
system.cpu0.iq.issued_per_cycle::2             388839      1.28%     97.77% # Number of insts issued each cycle
system.cpu0.iq.issued_per_cycle::3             260248      0.85%     98.62% # Number of insts issued each cycle
system.cpu0.iq.issued_per_cycle::4             258174      0.85%     99.47% # Number of insts issued each cycle
system.cpu0.iq.issued_per_cycle::5              68515      0.22%     99.70% # Number of insts issued each cycle
system.cpu0.iq.issued_per_cycle::6              58726      0.19%     99.89% # Number of insts issued each cycle
system.cpu0.iq.issued_per_cycle::7              19141      0.06%     99.95% # Number of insts issued each cycle
system.cpu0.iq.issued_per_cycle::8              14734      0.05%    100.00% # Number of insts issued each cycle
system.cpu0.iq.issued_per_cycle::overflows            0      0.00%    100.00% # Number of insts issued each cycle
system.cpu0.iq.issued_per_cycle::min_value            0                       # Number of insts issued each cycle
system.cpu0.iq.issued_per_cycle::max_value            8                       # Number of insts issued each cycle
system.cpu0.iq.issued_per_cycle::total       30473382                       # Number of insts issued each cycle
system.cpu0.iq.fu_full::No_OpClass                  0      0.00%      0.00% # attempts to use FU when none available
system.cpu0.iq.fu_full::IntAlu                   7381     68.28%     68.28% # attempts to use FU when none available
system.cpu0.iq.fu_full::IntMult                     0      0.00%     68.28% # attempts to use FU when none available
system.cpu0.iq.fu_full::IntDiv                      0      0.00%     68.28% # attempts to use FU when none available
system.cpu0.iq.fu_full::FloatAdd                  817      7.56%     75.84% # attempts to use FU when none available
system.cpu0.iq.fu_full::FloatCmp                    0      0.00%     75.84% # attempts to use FU when none available
system.cpu0.iq.fu_full::FloatCvt                    0      0.00%     75.84% # attempts to use FU when none available
system.cpu0.iq.fu_full::FloatMult                   0      0.00%     75.84% # attempts to use FU when none available
system.cpu0.iq.fu_full::FloatMultAcc                0      0.00%     75.84% # attempts to use FU when none available
system.cpu0.iq.fu_full::FloatDiv                    0      0.00%     75.84% # attempts to use FU when none available
system.cpu0.iq.fu_full::FloatMisc                   0      0.00%     75.84% # attempts to use FU when none available
system.cpu0.iq.fu_full::FloatSqrt                   0      0.00%     75.84% # attempts to use FU when none available
system.cpu0.iq.fu_full::SimdAdd                     0      0.00%     75.84% # attempts to use FU when none available
system.cpu0.iq.fu_full::SimdAddAcc                  0      0.00%     75.84% # attempts to use FU when none available
system.cpu0.iq.fu_full::SimdAlu                     0      0.00%     75.84% # attempts to use FU when none available
system.cpu0.iq.fu_full::SimdCmp                     0      0.00%     75.84% # attempts to use FU when none available
system.cpu0.iq.fu_full::SimdCvt                     0      0.00%     75.84% # attempts to use FU when none available
system.cpu0.iq.fu_full::SimdMisc                    0      0.00%     75.84% # attempts to use FU when none available
system.cpu0.iq.fu_full::SimdMult                    0      0.00%     75.84% # attempts to use FU when none available
system.cpu0.iq.fu_full::SimdMultAcc                 0      0.00%     75.84% # attempts to use FU when none available
system.cpu0.iq.fu_full::SimdShift                   0      0.00%     75.84% # attempts to use FU when none available
system.cpu0.iq.fu_full::SimdShiftAcc                0      0.00%     75.84% # attempts to use FU when none available
system.cpu0.iq.fu_full::SimdSqrt                    0      0.00%     75.84% # attempts to use FU when none available
system.cpu0.iq.fu_full::SimdFloatAdd                0      0.00%     75.84% # attempts to use FU when none available
system.cpu0.iq.fu_full::SimdFloatAlu                0      0.00%     75.84% # attempts to use FU when none available
system.cpu0.iq.fu_full::SimdFloatCmp                0      0.00%     75.84% # attempts to use FU when none available
system.cpu0.iq.fu_full::SimdFloatCvt                0      0.00%     75.84% # attempts to use FU when none available
system.cpu0.iq.fu_full::SimdFloatDiv                0      0.00%     75.84% # attempts to use FU when none available
system.cpu0.iq.fu_full::SimdFloatMisc               0      0.00%     75.84% # attempts to use FU when none available
system.cpu0.iq.fu_full::SimdFloatMult               0      0.00%     75.84% # attempts to use FU when none available
system.cpu0.iq.fu_full::SimdFloatMultAcc            0      0.00%     75.84% # attempts to use FU when none available
system.cpu0.iq.fu_full::SimdFloatSqrt               0      0.00%     75.84% # attempts to use FU when none available
system.cpu0.iq.fu_full::MemRead                  2359     21.82%     97.66% # attempts to use FU when none available
system.cpu0.iq.fu_full::MemWrite                  189      1.75%     99.41% # attempts to use FU when none available
system.cpu0.iq.fu_full::FloatMemRead               22      0.20%     99.61% # attempts to use FU when none available
system.cpu0.iq.fu_full::FloatMemWrite              42      0.39%    100.00% # attempts to use FU when none available
system.cpu0.iq.fu_full::IprAccess                   0      0.00%    100.00% # attempts to use FU when none available
system.cpu0.iq.fu_full::InstPrefetch                0      0.00%    100.00% # attempts to use FU when none available
system.cpu0.iq.FU_type_0::No_OpClass            13911      0.32%      0.32% # Type of FU issued
system.cpu0.iq.FU_type_0::IntAlu              3537685     82.51%     82.84% # Type of FU issued
system.cpu0.iq.FU_type_0::IntMult                1039      0.02%     82.86% # Type of FU issued
system.cpu0.iq.FU_type_0::IntDiv                 6956      0.16%     83.03% # Type of FU issued
system.cpu0.iq.FU_type_0::FloatAdd              10423      0.24%     83.27% # Type of FU issued
system.cpu0.iq.FU_type_0::FloatCmp                  0      0.00%     83.27% # Type of FU issued
system.cpu0.iq.FU_type_0::FloatCvt                  0      0.00%     83.27% # Type of FU issued
system.cpu0.iq.FU_type_0::FloatMult                 0      0.00%     83.27% # Type of FU issued
system.cpu0.iq.FU_type_0::FloatMultAcc              0      0.00%     83.27% # Type of FU issued
system.cpu0.iq.FU_type_0::FloatDiv                  0      0.00%     83.27% # Type of FU issued
system.cpu0.iq.FU_type_0::FloatMisc                 0      0.00%     83.27% # Type of FU issued
system.cpu0.iq.FU_type_0::FloatSqrt                 0      0.00%     83.27% # Type of FU issued
system.cpu0.iq.FU_type_0::SimdAdd                   0      0.00%     83.27% # Type of FU issued
system.cpu0.iq.FU_type_0::SimdAddAcc                0      0.00%     83.27% # Type of FU issued
system.cpu0.iq.FU_type_0::SimdAlu                   0      0.00%     83.27% # Type of FU issued
system.cpu0.iq.FU_type_0::SimdCmp                   0      0.00%     83.27% # Type of FU issued
system.cpu0.iq.FU_type_0::SimdCvt                   0      0.00%     83.27% # Type of FU issued
system.cpu0.iq.FU_type_0::SimdMisc                  0      0.00%     83.27% # Type of FU issued
system.cpu0.iq.FU_type_0::SimdMult                  0      0.00%     83.27% # Type of FU issued
system.cpu0.iq.FU_type_0::SimdMultAcc               0      0.00%     83.27% # Type of FU issued
system.cpu0.iq.FU_type_0::SimdShift                 0      0.00%     83.27% # Type of FU issued
system.cpu0.iq.FU_type_0::SimdShiftAcc              0      0.00%     83.27% # Type of FU issued
system.cpu0.iq.FU_type_0::SimdSqrt                  0      0.00%     83.27% # Type of FU issued
system.cpu0.iq.FU_type_0::SimdFloatAdd              0      0.00%     83.27% # Type of FU issued
system.cpu0.iq.FU_type_0::SimdFloatAlu              0      0.00%     83.27% # Type of FU issued
system.cpu0.iq.FU_type_0::SimdFloatCmp              0      0.00%     83.27% # Type of FU issued
system.cpu0.iq.FU_type_0::SimdFloatCvt              0      0.00%     83.27% # Type of FU issued
system.cpu0.iq.FU_type_0::SimdFloatDiv              0      0.00%     83.27% # Type of FU issued
system.cpu0.iq.FU_type_0::SimdFloatMisc             0      0.00%     83.27% # Type of FU issued
system.cpu0.iq.FU_type_0::SimdFloatMult             0      0.00%     83.27% # Type of FU issued
system.cpu0.iq.FU_type_0::SimdFloatMultAcc            0      0.00%     83.27% # Type of FU issued
system.cpu0.iq.FU_type_0::SimdFloatSqrt             0      0.00%     83.27% # Type of FU issued
system.cpu0.iq.FU_type_0::MemRead              672887     15.69%     98.96% # Type of FU issued
system.cpu0.iq.FU_type_0::MemWrite              42911      1.00%     99.96% # Type of FU issued
system.cpu0.iq.FU_type_0::FloatMemRead           1372      0.03%    100.00% # Type of FU issued
system.cpu0.iq.FU_type_0::FloatMemWrite           172      0.00%    100.00% # Type of FU issued
system.cpu0.iq.FU_type_0::IprAccess                 0      0.00%    100.00% # Type of FU issued
system.cpu0.iq.FU_type_0::InstPrefetch              0      0.00%    100.00% # Type of FU issued
system.cpu0.iq.FU_type_0::total               4287356                       # Type of FU issued
system.cpu0.iq.rate                          0.140409                       # Inst issue rate
system.cpu0.iq.fu_busy_cnt                      10810                       # FU busy when requested
system.cpu0.iq.fu_busy_rate                  0.002521                       # FU busy rate (busy events/executed inst)
system.cpu0.iq.int_inst_queue_reads          39037431                       # Number of integer instruction queue reads
system.cpu0.iq.int_inst_queue_writes          9755161                       # Number of integer instruction queue writes
system.cpu0.iq.int_inst_queue_wakeup_accesses      4124615                       # Number of integer instruction queue wakeup accesses
system.cpu0.iq.fp_inst_queue_reads              25028                       # Number of floating instruction queue reads
system.cpu0.iq.fp_inst_queue_writes             20748                       # Number of floating instruction queue writes
system.cpu0.iq.fp_inst_queue_wakeup_accesses        11272                       # Number of floating instruction queue wakeup accesses
system.cpu0.iq.vec_inst_queue_reads                 0                       # Number of vector instruction queue reads
system.cpu0.iq.vec_inst_queue_writes                0                       # Number of vector instruction queue writes
system.cpu0.iq.vec_inst_queue_wakeup_accesses            0                       # Number of vector instruction queue wakeup accesses
system.cpu0.iq.int_alu_accesses               4271393                       # Number of integer alu accesses
system.cpu0.iq.fp_alu_accesses                  12862                       # Number of floating point alu accesses
system.cpu0.iq.vec_alu_accesses                     0                       # Number of vector alu accesses
system.cpu0.iew.lsq.thread0.forwLoads            3329                       # Number of loads that had data forwarded from stores
system.cpu0.iew.lsq.thread0.invAddrLoads            0                       # Number of loads ignored due to an invalid address
system.cpu0.iew.lsq.thread0.squashedLoads       720743                       # Number of loads squashed
system.cpu0.iew.lsq.thread0.ignoredResponses           92                       # Number of memory responses ignored because the instruction is squashed
system.cpu0.iew.lsq.thread0.memOrderViolation            1                       # Number of memory ordering violations
system.cpu0.iew.lsq.thread0.squashedStores        39017                       # Number of stores squashed
system.cpu0.iew.lsq.thread0.invAddrSwpfs            0                       # Number of software prefetches ignored due to an invalid address
system.cpu0.iew.lsq.thread0.blockedLoads            0                       # Number of blocked loads due to partial load-store forwarding
system.cpu0.iew.lsq.thread0.rescheduledLoads           39                       # Number of loads that were rescheduled
system.cpu0.iew.lsq.thread0.cacheBlocked         1081                       # Number of times an access to memory failed due to the cache being blocked
system.cpu0.iew.iewIdleCycles                       0                       # Number of cycles IEW is idle
system.cpu0.iew.iewSquashCycles                 56982                       # Number of cycles IEW is squashing
system.cpu0.iew.iewBlockCycles               25912168                       # Number of cycles IEW is blocking
system.cpu0.iew.iewUnblockCycles               256255                       # Number of cycles IEW is unblocking
system.cpu0.iew.iewDispatchedInsts            6017833                       # Number of instructions dispatched to IQ
system.cpu0.iew.iewDispSquashedInsts             3603                       # Number of squashed instructions skipped by dispatch
system.cpu0.iew.iewDispLoadInsts              1153672                       # Number of dispatched load instructions
system.cpu0.iew.iewDispStoreInsts               59021                       # Number of dispatched store instructions
system.cpu0.iew.iewDispNonSpecInsts              1335                       # Number of dispatched non-speculative instructions
system.cpu0.iew.iewIQFullEvents                 15334                       # Number of times the IQ has become full, causing a stall
system.cpu0.iew.iewLSQFullEvents                57246                       # Number of times the LSQ has become full, causing a stall
system.cpu0.iew.memOrderViolationEvents             1                       # Number of memory order violations
system.cpu0.iew.predictedTakenIncorrect         31528                       # Number of branches that were predicted taken incorrectly
system.cpu0.iew.predictedNotTakenIncorrect        31073                       # Number of branches that were predicted not taken incorrectly
system.cpu0.iew.branchMispredicts               62601                       # Number of branch mispredicts detected at execute
system.cpu0.iew.iewExecutedInsts              4220231                       # Number of executed instructions
system.cpu0.iew.iewExecLoadInsts               648638                       # Number of load instructions executed
system.cpu0.iew.iewExecSquashedInsts            67125                       # Number of squashed instructions skipped in execute
system.cpu0.iew.exec_swp                            0                       # number of swp insts executed
system.cpu0.iew.exec_nop                            0                       # number of nop insts executed
system.cpu0.iew.exec_refs                      688524                       # number of memory reference insts executed
system.cpu0.iew.exec_branches                  510893                       # Number of branches executed
system.cpu0.iew.exec_stores                     39886                       # Number of stores executed
system.cpu0.iew.exec_rate                    0.138211                       # Inst execution rate
system.cpu0.iew.wb_sent                       4148803                       # cumulative count of insts sent to commit
system.cpu0.iew.wb_count                      4135887                       # cumulative count of insts written-back
system.cpu0.iew.wb_producers                  3021037                       # num instructions producing a value
system.cpu0.iew.wb_consumers                  4773818                       # num instructions consuming a value
system.cpu0.iew.wb_rate                      0.135449                       # insts written-back per cycle
system.cpu0.iew.wb_fanout                    0.632835                       # average fanout of values written-back
system.cpu0.commit.commitSquashedInsts        3758629                       # The number of squashed insts skipped by commit
system.cpu0.commit.branchMispredicts            56981                       # The number of times a branch was mispredicted
system.cpu0.commit.committed_per_cycle::samples     29942564                       # Number of insts commited each cycle
system.cpu0.commit.committed_per_cycle::mean     0.075470                       # Number of insts commited each cycle
system.cpu0.commit.committed_per_cycle::stdev     0.497195                       # Number of insts commited each cycle
system.cpu0.commit.committed_per_cycle::underflows            0      0.00%      0.00% # Number of insts commited each cycle
system.cpu0.commit.committed_per_cycle::0     28937034     96.64%     96.64% # Number of insts commited each cycle
system.cpu0.commit.committed_per_cycle::1       469877      1.57%     98.21% # Number of insts commited each cycle
system.cpu0.commit.committed_per_cycle::2       110939      0.37%     98.58% # Number of insts commited each cycle
system.cpu0.commit.committed_per_cycle::3       307151      1.03%     99.61% # Number of insts commited each cycle
system.cpu0.commit.committed_per_cycle::4        51664      0.17%     99.78% # Number of insts commited each cycle
system.cpu0.commit.committed_per_cycle::5        25190      0.08%     99.86% # Number of insts commited each cycle
system.cpu0.commit.committed_per_cycle::6         4259      0.01%     99.88% # Number of insts commited each cycle
system.cpu0.commit.committed_per_cycle::7         3204      0.01%     99.89% # Number of insts commited each cycle
system.cpu0.commit.committed_per_cycle::8        33246      0.11%    100.00% # Number of insts commited each cycle
system.cpu0.commit.committed_per_cycle::overflows            0      0.00%    100.00% # Number of insts commited each cycle
system.cpu0.commit.committed_per_cycle::min_value            0                       # Number of insts commited each cycle
system.cpu0.commit.committed_per_cycle::max_value            8                       # Number of insts commited each cycle
system.cpu0.commit.committed_per_cycle::total     29942564                       # Number of insts commited each cycle
system.cpu0.commit.committedInsts             1130534                       # Number of instructions committed
system.cpu0.commit.committedOps               2259764                       # Number of ops (including micro ops) committed
system.cpu0.commit.swp_count                        0                       # Number of s/w prefetches committed
system.cpu0.commit.refs                        452941                       # Number of memory references committed
system.cpu0.commit.loads                       432937                       # Number of loads committed
system.cpu0.commit.membars                          0                       # Number of memory barriers committed
system.cpu0.commit.branches                    412828                       # Number of branches committed
system.cpu0.commit.vec_insts                        0                       # Number of committed Vector instructions.
system.cpu0.commit.fp_insts                      8022                       # Number of committed floating point instructions.
system.cpu0.commit.int_insts                  2251688                       # Number of committed integer instructions.
system.cpu0.commit.function_calls                3525                       # Number of function calls committed.
system.cpu0.commit.op_class_0::No_OpClass         2394      0.11%      0.11% # Class of committed instruction
system.cpu0.commit.op_class_0::IntAlu         1791667     79.29%     79.39% # Class of committed instruction
system.cpu0.commit.op_class_0::IntMult            141      0.01%     79.40% # Class of committed instruction
system.cpu0.commit.op_class_0::IntDiv            5769      0.26%     79.65% # Class of committed instruction
system.cpu0.commit.op_class_0::FloatAdd          6852      0.30%     79.96% # Class of committed instruction
system.cpu0.commit.op_class_0::FloatCmp             0      0.00%     79.96% # Class of committed instruction
system.cpu0.commit.op_class_0::FloatCvt             0      0.00%     79.96% # Class of committed instruction
system.cpu0.commit.op_class_0::FloatMult            0      0.00%     79.96% # Class of committed instruction
system.cpu0.commit.op_class_0::FloatMultAcc            0      0.00%     79.96% # Class of committed instruction
system.cpu0.commit.op_class_0::FloatDiv             0      0.00%     79.96% # Class of committed instruction
system.cpu0.commit.op_class_0::FloatMisc            0      0.00%     79.96% # Class of committed instruction
system.cpu0.commit.op_class_0::FloatSqrt            0      0.00%     79.96% # Class of committed instruction
system.cpu0.commit.op_class_0::SimdAdd              0      0.00%     79.96% # Class of committed instruction
system.cpu0.commit.op_class_0::SimdAddAcc            0      0.00%     79.96% # Class of committed instruction
system.cpu0.commit.op_class_0::SimdAlu              0      0.00%     79.96% # Class of committed instruction
system.cpu0.commit.op_class_0::SimdCmp              0      0.00%     79.96% # Class of committed instruction
system.cpu0.commit.op_class_0::SimdCvt              0      0.00%     79.96% # Class of committed instruction
system.cpu0.commit.op_class_0::SimdMisc             0      0.00%     79.96% # Class of committed instruction
system.cpu0.commit.op_class_0::SimdMult             0      0.00%     79.96% # Class of committed instruction
system.cpu0.commit.op_class_0::SimdMultAcc            0      0.00%     79.96% # Class of committed instruction
system.cpu0.commit.op_class_0::SimdShift            0      0.00%     79.96% # Class of committed instruction
system.cpu0.commit.op_class_0::SimdShiftAcc            0      0.00%     79.96% # Class of committed instruction
system.cpu0.commit.op_class_0::SimdSqrt             0      0.00%     79.96% # Class of committed instruction
system.cpu0.commit.op_class_0::SimdFloatAdd            0      0.00%     79.96% # Class of committed instruction
system.cpu0.commit.op_class_0::SimdFloatAlu            0      0.00%     79.96% # Class of committed instruction
system.cpu0.commit.op_class_0::SimdFloatCmp            0      0.00%     79.96% # Class of committed instruction
system.cpu0.commit.op_class_0::SimdFloatCvt            0      0.00%     79.96% # Class of committed instruction
system.cpu0.commit.op_class_0::SimdFloatDiv            0      0.00%     79.96% # Class of committed instruction
system.cpu0.commit.op_class_0::SimdFloatMisc            0      0.00%     79.96% # Class of committed instruction
system.cpu0.commit.op_class_0::SimdFloatMult            0      0.00%     79.96% # Class of committed instruction
system.cpu0.commit.op_class_0::SimdFloatMultAcc            0      0.00%     79.96% # Class of committed instruction
system.cpu0.commit.op_class_0::SimdFloatSqrt            0      0.00%     79.96% # Class of committed instruction
system.cpu0.commit.op_class_0::MemRead         431767     19.11%     99.06% # Class of committed instruction
system.cpu0.commit.op_class_0::MemWrite         20004      0.89%     99.95% # Class of committed instruction
system.cpu0.commit.op_class_0::FloatMemRead         1170      0.05%    100.00% # Class of committed instruction
system.cpu0.commit.op_class_0::FloatMemWrite            0      0.00%    100.00% # Class of committed instruction
system.cpu0.commit.op_class_0::IprAccess            0      0.00%    100.00% # Class of committed instruction
system.cpu0.commit.op_class_0::InstPrefetch            0      0.00%    100.00% # Class of committed instruction
system.cpu0.commit.op_class_0::total          2259764                       # Class of committed instruction
system.cpu0.commit.bw_lim_events                33246                       # number cycles where commit BW limit reached
system.cpu0.rob.rob_reads                    35927711                       # The number of ROB reads
system.cpu0.rob.rob_writes                   12568748                       # The number of ROB writes
system.cpu0.timesIdled                            465                       # Number of times that the entire CPU went into an idle state and unscheduled itself
system.cpu0.idleCycles                          61306                       # Total number of cycles that the CPU has spent unscheduled due to idling
system.cpu0.committedInsts                    1130534                       # Number of Instructions Simulated
system.cpu0.committedOps                      2259764                       # Number of Ops (including micro ops) Simulated
system.cpu0.cpi                             27.009084                       # CPI: Cycles Per Instruction
system.cpu0.cpi_total                       27.009084                       # CPI: Total CPI of All Threads
system.cpu0.ipc                              0.037025                       # IPC: Instructions Per Cycle
system.cpu0.ipc_total                        0.037025                       # IPC: Total IPC of All Threads
system.cpu0.int_regfile_reads                 4154811                       # number of integer regfile reads
system.cpu0.int_regfile_writes                3588957                       # number of integer regfile writes
system.cpu0.fp_regfile_reads                    20100                       # number of floating regfile reads
system.cpu0.fp_regfile_writes                    9996                       # number of floating regfile writes
system.cpu0.cc_regfile_reads                  2687621                       # number of cc regfile reads
system.cpu0.cc_regfile_writes                 1128259                       # number of cc regfile writes
system.cpu0.misc_regfile_reads                2245306                       # number of misc regfile reads
system.cpu0.dcache.tags.pwrStateResidencyTicks::UNDEFINED  15267344125                       # Cumulative time (in ticks) in various power states
system.cpu0.dcache.tags.replacements           229934                       # number of replacements
system.cpu0.dcache.tags.tagsinuse                1024                       # Cycle average of tags in use
system.cpu0.dcache.tags.total_refs             253414                       # Total number of references to valid blocks.
system.cpu0.dcache.tags.sampled_refs           229934                       # Sample count of references to valid blocks.
system.cpu0.dcache.tags.avg_refs             1.102116                       # Average number of references to valid blocks.
system.cpu0.dcache.tags.warmup_cycle                0                       # Cycle when the warmup percentage was hit.
system.cpu0.dcache.tags.occ_blocks::cpu0.data         1024                       # Average occupied blocks per requestor
system.cpu0.dcache.tags.occ_percent::cpu0.data            1                       # Average percentage of cache occupancy
system.cpu0.dcache.tags.occ_percent::total            1                       # Average percentage of cache occupancy
system.cpu0.dcache.tags.occ_task_id_blocks::1024         1024                       # Occupied blocks per task id
system.cpu0.dcache.tags.age_task_id_blocks_1024::0          135                       # Occupied blocks per task id
system.cpu0.dcache.tags.age_task_id_blocks_1024::1          773                       # Occupied blocks per task id
system.cpu0.dcache.tags.age_task_id_blocks_1024::2          116                       # Occupied blocks per task id
system.cpu0.dcache.tags.occ_task_id_percent::1024            1                       # Percentage of cache occupancy per task id
system.cpu0.dcache.tags.tag_accesses          2877958                       # Number of tag accesses
system.cpu0.dcache.tags.data_accesses         2877958                       # Number of data accesses
system.cpu0.dcache.pwrStateResidencyTicks::UNDEFINED  15267344125                       # Cumulative time (in ticks) in various power states
system.cpu0.dcache.ReadReq_hits::cpu0.data       234923                       # number of ReadReq hits
system.cpu0.dcache.ReadReq_hits::total         234923                       # number of ReadReq hits
system.cpu0.dcache.WriteReq_hits::cpu0.data        19194                       # number of WriteReq hits
system.cpu0.dcache.WriteReq_hits::total         19194                       # number of WriteReq hits
system.cpu0.dcache.demand_hits::cpu0.data       254117                       # number of demand (read+write) hits
system.cpu0.dcache.demand_hits::total          254117                       # number of demand (read+write) hits
system.cpu0.dcache.overall_hits::cpu0.data       254117                       # number of overall hits
system.cpu0.dcache.overall_hits::total         254117                       # number of overall hits
system.cpu0.dcache.ReadReq_misses::cpu0.data       407079                       # number of ReadReq misses
system.cpu0.dcache.ReadReq_misses::total       407079                       # number of ReadReq misses
system.cpu0.dcache.WriteReq_misses::cpu0.data          810                       # number of WriteReq misses
system.cpu0.dcache.WriteReq_misses::total          810                       # number of WriteReq misses
system.cpu0.dcache.demand_misses::cpu0.data       407889                       # number of demand (read+write) misses
system.cpu0.dcache.demand_misses::total        407889                       # number of demand (read+write) misses
system.cpu0.dcache.overall_misses::cpu0.data       407889                       # number of overall misses
system.cpu0.dcache.overall_misses::total       407889                       # number of overall misses
system.cpu0.dcache.ReadReq_miss_latency::cpu0.data  34577834000                       # number of ReadReq miss cycles
system.cpu0.dcache.ReadReq_miss_latency::total  34577834000                       # number of ReadReq miss cycles
system.cpu0.dcache.WriteReq_miss_latency::cpu0.data     29085999                       # number of WriteReq miss cycles
system.cpu0.dcache.WriteReq_miss_latency::total     29085999                       # number of WriteReq miss cycles
system.cpu0.dcache.demand_miss_latency::cpu0.data  34606919999                       # number of demand (read+write) miss cycles
system.cpu0.dcache.demand_miss_latency::total  34606919999                       # number of demand (read+write) miss cycles
system.cpu0.dcache.overall_miss_latency::cpu0.data  34606919999                       # number of overall miss cycles
system.cpu0.dcache.overall_miss_latency::total  34606919999                       # number of overall miss cycles
system.cpu0.dcache.ReadReq_accesses::cpu0.data       642002                       # number of ReadReq accesses(hits+misses)
system.cpu0.dcache.ReadReq_accesses::total       642002                       # number of ReadReq accesses(hits+misses)
system.cpu0.dcache.WriteReq_accesses::cpu0.data        20004                       # number of WriteReq accesses(hits+misses)
system.cpu0.dcache.WriteReq_accesses::total        20004                       # number of WriteReq accesses(hits+misses)
system.cpu0.dcache.demand_accesses::cpu0.data       662006                       # number of demand (read+write) accesses
system.cpu0.dcache.demand_accesses::total       662006                       # number of demand (read+write) accesses
system.cpu0.dcache.overall_accesses::cpu0.data       662006                       # number of overall (read+write) accesses
system.cpu0.dcache.overall_accesses::total       662006                       # number of overall (read+write) accesses
system.cpu0.dcache.ReadReq_miss_rate::cpu0.data     0.634077                       # miss rate for ReadReq accesses
system.cpu0.dcache.ReadReq_miss_rate::total     0.634077                       # miss rate for ReadReq accesses
system.cpu0.dcache.WriteReq_miss_rate::cpu0.data     0.040492                       # miss rate for WriteReq accesses
system.cpu0.dcache.WriteReq_miss_rate::total     0.040492                       # miss rate for WriteReq accesses
system.cpu0.dcache.demand_miss_rate::cpu0.data     0.616141                       # miss rate for demand accesses
system.cpu0.dcache.demand_miss_rate::total     0.616141                       # miss rate for demand accesses
system.cpu0.dcache.overall_miss_rate::cpu0.data     0.616141                       # miss rate for overall accesses
system.cpu0.dcache.overall_miss_rate::total     0.616141                       # miss rate for overall accesses
system.cpu0.dcache.ReadReq_avg_miss_latency::cpu0.data 84941.335711                       # average ReadReq miss latency
system.cpu0.dcache.ReadReq_avg_miss_latency::total 84941.335711                       # average ReadReq miss latency
system.cpu0.dcache.WriteReq_avg_miss_latency::cpu0.data 35908.640741                       # average WriteReq miss latency
system.cpu0.dcache.WriteReq_avg_miss_latency::total 35908.640741                       # average WriteReq miss latency
system.cpu0.dcache.demand_avg_miss_latency::cpu0.data 84843.964900                       # average overall miss latency
system.cpu0.dcache.demand_avg_miss_latency::total 84843.964900                       # average overall miss latency
system.cpu0.dcache.overall_avg_miss_latency::cpu0.data 84843.964900                       # average overall miss latency
system.cpu0.dcache.overall_avg_miss_latency::total 84843.964900                       # average overall miss latency
system.cpu0.dcache.blocked_cycles::no_mshrs        18278                       # number of cycles access was blocked
system.cpu0.dcache.blocked_cycles::no_targets            0                       # number of cycles access was blocked
[...]
system.l2.tags.tag_accesses                   3874638                       # Number of tag accesses
system.l2.tags.data_accesses                  3874638                       # Number of data accesses
system.l2.pwrStateResidencyTicks::UNDEFINED  15267344125                       # Cumulative time (in ticks) in various power states
system.l2.WritebackDirty_hits::writebacks         1955                       # number of WritebackDirty hits
system.l2.WritebackDirty_hits::total             1955                       # number of WritebackDirty hits
system.l2.ReadExReq_hits::cpu0.data               609                       # number of ReadExReq hits
system.l2.ReadExReq_hits::total                   609                       # number of ReadExReq hits
system.l2.ReadSharedReq_hits::cpu0.data         31217                       # number of ReadSharedReq hits
system.l2.ReadSharedReq_hits::total             31217                       # number of ReadSharedReq hits
system.l2.demand_hits::cpu0.data                31826                       # number of demand (read+write) hits
system.l2.demand_hits::total                    31826                       # number of demand (read+write) hits
system.l2.overall_hits::cpu0.data               31826                       # number of overall hits
system.l2.overall_hits::total                   31826                       # number of overall hits
system.l2.ReadExReq_misses::cpu0.data             198                       # number of ReadExReq misses
system.l2.ReadExReq_misses::total                 198                       # number of ReadExReq misses
system.l2.ReadSharedReq_misses::cpu0.data       197912                       # number of ReadSharedReq misses
system.l2.ReadSharedReq_misses::total          197912                       # number of ReadSharedReq misses
system.l2.demand_misses::cpu0.data             198110                       # number of demand (read+write) misses
system.l2.demand_misses::total                 198110                       # number of demand (read+write) misses
system.l2.overall_misses::cpu0.data            198110                       # number of overall misses
system.l2.overall_misses::total                198110                       # number of overall misses
system.l2.ReadExReq_miss_latency::cpu0.data     20267000                       # number of ReadExReq miss cycles
system.l2.ReadExReq_miss_latency::total      20267000                       # number of ReadExReq miss cycles
system.l2.ReadSharedReq_miss_latency::cpu0.data  18683775000                       # number of ReadSharedReq miss cycles
system.l2.ReadSharedReq_miss_latency::total  18683775000                       # number of ReadSharedReq miss cycles
system.l2.demand_miss_latency::cpu0.data  18704042000                       # number of demand (read+write) miss cycles
system.l2.demand_miss_latency::total      18704042000                       # number of demand (read+write) miss cycles
system.l2.overall_miss_latency::cpu0.data  18704042000                       # number of overall miss cycles
system.l2.overall_miss_latency::total     18704042000                       # number of overall miss cycles
system.l2.WritebackDirty_accesses::writebacks         1955                       # number of WritebackDirty accesses(hits+misses)
system.l2.WritebackDirty_accesses::total         1955                       # number of WritebackDirty accesses(hits+misses)
system.l2.ReadExReq_accesses::cpu0.data           807                       # number of ReadExReq accesses(hits+misses)
system.l2.ReadExReq_accesses::total               807                       # number of ReadExReq accesses(hits+misses)
system.l2.ReadSharedReq_accesses::cpu0.data       229129                       # number of ReadSharedReq accesses(hits+misses)
system.l2.ReadSharedReq_accesses::total        229129                       # number of ReadSharedReq accesses(hits+misses)
system.l2.demand_accesses::cpu0.data           229936                       # number of demand (read+write) accesses
system.l2.demand_accesses::total               229936                       # number of demand (read+write) accesses
system.l2.overall_accesses::cpu0.data          229936                       # number of overall (read+write) accesses
system.l2.overall_accesses::total              229936                       # number of overall (read+write) accesses
system.l2.ReadExReq_miss_rate::cpu0.data     0.245353                       # miss rate for ReadExReq accesses
system.l2.ReadExReq_miss_rate::total         0.245353                       # miss rate for ReadExReq accesses
system.l2.ReadSharedReq_miss_rate::cpu0.data     0.863758                       # miss rate for ReadSharedReq accesses
system.l2.ReadSharedReq_miss_rate::total     0.863758                       # miss rate for ReadSharedReq accesses
system.l2.demand_miss_rate::cpu0.data        0.861588                       # miss rate for demand accesses
system.l2.demand_miss_rate::total            0.861588                       # miss rate for demand accesses
system.l2.overall_miss_rate::cpu0.data       0.861588                       # miss rate for overall accesses
system.l2.overall_miss_rate::total           0.861588                       # miss rate for overall accesses
system.l2.ReadExReq_avg_miss_latency::cpu0.data 102358.585859                       # average ReadExReq miss latency
system.l2.ReadExReq_avg_miss_latency::total 102358.585859                       # average ReadExReq miss latency
system.l2.ReadSharedReq_avg_miss_latency::cpu0.data 94404.457537                       # average ReadSharedReq miss latency
system.l2.ReadSharedReq_avg_miss_latency::total 94404.457537                       # average ReadSharedReq miss latency
system.l2.demand_avg_miss_latency::cpu0.data 94412.407248                       # average overall miss latency
system.l2.demand_avg_miss_latency::total 94412.407248                       # average overall miss latency
system.l2.overall_avg_miss_latency::cpu0.data 94412.407248                       # average overall miss latency
system.l2.overall_avg_miss_latency::total 94412.407248                       # average overall miss latency
system.l2.blocked_cycles::no_mshrs                  0                       # number of cycles access was blocked
system.l2.blocked_cycles::no_targets                0                       # number of cycles access was blocked
system.l2.blocked::no_mshrs                         0                       # number of cycles access was blocked
system.l2.blocked::no_targets                       0                       # number of cycles access was blocked
system.l2.avg_blocked_cycles::no_mshrs            nan                       # average number of cycles each access was blocked
system.l2.avg_blocked_cycles::no_targets          nan                       # average number of cycles each access was blocked
system.l2.writebacks::writebacks                  310                       # number of writebacks
system.l2.writebacks::total                       310                       # number of writebacks
system.l2.ReadExReq_mshr_misses::cpu0.data          198                       # number of ReadExReq MSHR misses
system.l2.ReadExReq_mshr_misses::total            198                       # number of ReadExReq MSHR misses
system.l2.ReadSharedReq_mshr_misses::cpu0.data       197912                       # number of ReadSharedReq MSHR misses
system.l2.ReadSharedReq_mshr_misses::total       197912                       # number of ReadSharedReq MSHR misses
system.l2.demand_mshr_misses::cpu0.data        198110                       # number of demand (read+write) MSHR misses
system.l2.demand_mshr_misses::total            198110                       # number of demand (read+write) MSHR misses
system.l2.overall_mshr_misses::cpu0.data       198110                       # number of overall MSHR misses
system.l2.overall_mshr_misses::total           198110                       # number of overall MSHR misses
system.l2.ReadExReq_mshr_miss_latency::cpu0.data     18287000                       # number of ReadExReq MSHR miss cycles
system.l2.ReadExReq_mshr_miss_latency::total     18287000                       # number of ReadExReq MSHR miss cycles
system.l2.ReadSharedReq_mshr_miss_latency::cpu0.data  16704675000                       # number of ReadSharedReq MSHR miss cycles
system.l2.ReadSharedReq_mshr_miss_latency::total  16704675000                       # number of ReadSharedReq MSHR miss cycles
system.l2.demand_mshr_miss_latency::cpu0.data  16722962000                       # number of demand (read+write) MSHR miss cycles
system.l2.demand_mshr_miss_latency::total  16722962000                       # number of demand (read+write) MSHR miss cycles
system.l2.overall_mshr_miss_latency::cpu0.data  16722962000                       # number of overall MSHR miss cycles
system.l2.overall_mshr_miss_latency::total  16722962000                       # number of overall MSHR miss cycles
system.l2.ReadExReq_mshr_miss_rate::cpu0.data     0.245353                       # mshr miss rate for ReadExReq accesses
system.l2.ReadExReq_mshr_miss_rate::total     0.245353                       # mshr miss rate for ReadExReq accesses
system.l2.ReadSharedReq_mshr_miss_rate::cpu0.data     0.863758                       # mshr miss rate for ReadSharedReq accesses
system.l2.ReadSharedReq_mshr_miss_rate::total     0.863758                       # mshr miss rate for ReadSharedReq accesses
system.l2.demand_mshr_miss_rate::cpu0.data     0.861588                       # mshr miss rate for demand accesses
system.l2.demand_mshr_miss_rate::total       0.861588                       # mshr miss rate for demand accesses
system.l2.overall_mshr_miss_rate::cpu0.data     0.861588                       # mshr miss rate for overall accesses
system.l2.overall_mshr_miss_rate::total      0.861588                       # mshr miss rate for overall accesses
system.l2.ReadExReq_avg_mshr_miss_latency::cpu0.data 92358.585859                       # average ReadExReq mshr miss latency
system.l2.ReadExReq_avg_mshr_miss_latency::total 92358.585859                       # average ReadExReq mshr miss latency
system.l2.ReadSharedReq_avg_mshr_miss_latency::cpu0.data 84404.558592                       # average ReadSharedReq mshr miss latency
system.l2.ReadSharedReq_avg_mshr_miss_latency::total 84404.558592                       # average ReadSharedReq mshr miss latency
system.l2.demand_avg_mshr_miss_latency::cpu0.data 84412.508203                       # average overall mshr miss latency
system.l2.demand_avg_mshr_miss_latency::total 84412.508203                       # average overall mshr miss latency
system.l2.overall_avg_mshr_miss_latency::cpu0.data 84412.508203                       # average overall mshr miss latency
system.l2.overall_avg_mshr_miss_latency::total 84412.508203                       # average overall mshr miss latency
system.membus.snoop_filter.tot_requests        396212                       # Total number of requests made to the snoop filter.
system.membus.snoop_filter.hit_single_requests       198108                       # Number of requests hitting in the snoop filter with a single holder of the requested data.
system.membus.snoop_filter.hit_multi_requests            0                       # Number of requests hitting in the snoop filter with multiple (>1) holders of the requested data.
system.membus.snoop_filter.tot_snoops               0                       # Total number of snoops made to the snoop filter.
system.membus.snoop_filter.hit_single_snoops            0                       # Number of snoops hitting in the snoop filter with a single holder of the requested data.
system.membus.snoop_filter.hit_multi_snoops            0                       # Number of snoops hitting in the snoop filter with multiple (>1) holders of the requested data.
system.membus.pwrStateResidencyTicks::UNDEFINED  15267344125                       # Cumulative time (in ticks) in various power states
system.membus.trans_dist::ReadResp             197910                       # Transaction distribution
system.membus.trans_dist::WritebackDirty          310                       # Transaction distribution
system.membus.trans_dist::CleanEvict           197792                       # Transaction distribution
system.membus.trans_dist::ReadExReq               198                       # Transaction distribution
system.membus.trans_dist::ReadExResp              198                       # Transaction distribution
system.membus.trans_dist::ReadSharedReq        197912                       # Transaction distribution
system.membus.pkt_count_system.l2.mem_side::system.mem_ctrls.port       594320                       # Packet count per connected master and slave (bytes)
system.membus.pkt_count_system.l2.mem_side::total       594320                       # Packet count per connected master and slave (bytes)
system.membus.pkt_count::total                 594320                       # Packet count per connected master and slave (bytes)
system.membus.pkt_size_system.l2.mem_side::system.mem_ctrls.port     12698752                       # Cumulative packet size per connected master and slave (bytes)
system.membus.pkt_size_system.l2.mem_side::total     12698752                       # Cumulative packet size per connected master and slave (bytes)
system.membus.pkt_size::total                12698752                       # Cumulative packet size per connected master and slave (bytes)
system.membus.snoops                                0                       # Total snoops (count)
system.membus.snoopTraffic                          0                       # Total snoop traffic (bytes)
system.membus.snoop_fanout::samples            198110                       # Request fanout histogram
system.membus.snoop_fanout::mean                    0                       # Request fanout histogram
system.membus.snoop_fanout::stdev                   0                       # Request fanout histogram
system.membus.snoop_fanout::underflows              0      0.00%      0.00% # Request fanout histogram
system.membus.snoop_fanout::0                  198110    100.00%    100.00% # Request fanout histogram
system.membus.snoop_fanout::1                       0      0.00%    100.00% # Request fanout histogram
system.membus.snoop_fanout::overflows               0      0.00%    100.00% # Request fanout histogram
system.membus.snoop_fanout::min_value               0                       # Request fanout histogram
system.membus.snoop_fanout::max_value               0                       # Request fanout histogram
system.membus.snoop_fanout::total              198110                       # Request fanout histogram
system.membus.reqLayer4.occupancy           467316500                       # Layer occupancy (ticks)
system.membus.reqLayer4.utilization               3.1                       # Layer utilization (%)
system.membus.respLayer1.occupancy         1070140500                       # Layer occupancy (ticks)
system.membus.respLayer1.utilization              7.0                       # Layer utilization (%)
system.tol2bus.snoop_filter.tot_requests       459870                       # Total number of requests made to the snoop filter.
system.tol2bus.snoop_filter.hit_single_requests       229937                       # Number of requests hitting in the snoop filter with a single holder of the requested data.
system.tol2bus.snoop_filter.hit_multi_requests          546                       # Number of requests hitting in the snoop filter with multiple (>1) holders of the requested data.
system.tol2bus.snoop_filter.tot_snoops              8                       # Total number of snoops made to the snoop filter.
system.tol2bus.snoop_filter.hit_single_snoops            8                       # Number of snoops hitting in the snoop filter with a single holder of the requested data.
system.tol2bus.snoop_filter.hit_multi_snoops            0                       # Number of snoops hitting in the snoop filter with multiple (>1) holders of the requested data.
system.tol2bus.pwrStateResidencyTicks::UNDEFINED  15267344125                       # Cumulative time (in ticks) in various power states
system.tol2bus.trans_dist::ReadResp            229127                       # Transaction distribution
system.tol2bus.trans_dist::WritebackDirty         2265                       # Transaction distribution
system.tol2bus.trans_dist::CleanEvict          425779                       # Transaction distribution
system.tol2bus.trans_dist::ReadExReq              807                       # Transaction distribution
system.tol2bus.trans_dist::ReadExResp             807                       # Transaction distribution
system.tol2bus.trans_dist::ReadSharedReq       229129                       # Transaction distribution
system.tol2bus.pkt_count_system.cpu0.dcache.mem_side::system.l2.cpu_side       689804                       # Packet count per connected master and slave (bytes)
system.tol2bus.pkt_count::total                689804                       # Packet count per connected master and slave (bytes)
system.tol2bus.pkt_size_system.cpu0.dcache.mem_side::system.l2.cpu_side     14840896                       # Cumulative packet size per connected master and slave (bytes)
system.tol2bus.pkt_size::total               14840896                       # Cumulative packet size per connected master and slave (bytes)
system.tol2bus.snoops                          198110                       # Total snoops (count)
system.tol2bus.snoopTraffic                     19840                       # Total snoop traffic (bytes)
system.tol2bus.snoop_fanout::samples           428046                       # Request fanout histogram
system.tol2bus.snoop_fanout::mean            0.001301                       # Request fanout histogram
system.tol2bus.snoop_fanout::stdev           0.036050                       # Request fanout histogram
system.tol2bus.snoop_fanout::underflows             0      0.00%      0.00% # Request fanout histogram
system.tol2bus.snoop_fanout::0                 427489     99.87%     99.87% # Request fanout histogram
system.tol2bus.snoop_fanout::1                    557      0.13%    100.00% # Request fanout histogram
system.tol2bus.snoop_fanout::2                      0      0.00%    100.00% # Request fanout histogram
system.tol2bus.snoop_fanout::3                      0      0.00%    100.00% # Request fanout histogram
system.tol2bus.snoop_fanout::4                      0      0.00%    100.00% # Request fanout histogram
system.tol2bus.snoop_fanout::5                      0      0.00%    100.00% # Request fanout histogram
system.tol2bus.snoop_fanout::6                      0      0.00%    100.00% # Request fanout histogram
system.tol2bus.snoop_fanout::7                      0      0.00%    100.00% # Request fanout histogram
system.tol2bus.snoop_fanout::8                      0      0.00%    100.00% # Request fanout histogram
system.tol2bus.snoop_fanout::overflows              0      0.00%    100.00% # Request fanout histogram
system.tol2bus.snoop_fanout::min_value              0                       # Request fanout histogram
system.tol2bus.snoop_fanout::max_value              1                       # Request fanout histogram
system.tol2bus.snoop_fanout::total             428046                       # Request fanout histogram
system.tol2bus.reqLayer0.occupancy          231890000                       # Layer occupancy (ticks)
system.tol2bus.reqLayer0.utilization              1.5                       # Layer utilization (%)
system.tol2bus.respLayer1.occupancy         344901000                       # Layer occupancy (ticks)
system.tol2bus.respLayer1.utilization             2.3                       # Layer utilization (%)

---------- End Simulation Statistics   ----------
