
---------- Begin Simulation Statistics ----------
sim_seconds                                  0.015267                       # Number of seconds simulated
sim_ticks                                 15267344125                       # Number of ticks simulated
final_tick                               2152695521625                       # Number of ticks from beginning of simulation (restored from checkpoints and never reset)
sim_freq                                 1000000000000                       # Frequency of simulated ticks
host_inst_rate                               19298778                       # Simulator instruction rate (inst/s)
host_op_rate                                 35075378                       # Simulator op (including micro ops) rate (op/s)
host_tick_rate                               59866612                       # Simulator tick rate (ticks/s)
host_mem_usage                                3428952                       # Number of bytes of host memory used
host_seconds                                   255.02                       # Real time elapsed on the host
sim_insts                                  4921625883                       # Number of instructions simulated
sim_ops                                    8945016855                       # Number of ops (including micro ops) simulated
system.voltage_domain.voltage                       1                       # Voltage in Volts
system.clk_domain.clock                          1000                       # Clock period in ticks
system.mem_ctrls.pwrStateResidencyTicks::UNDEFINED  15267344125                       # Cumulative time (in ticks) in various power states
system.mem_ctrls.bytes_read::cpu0.inst            512                       # Number of bytes read from this memory
system.mem_ctrls.bytes_read::cpu0.data        1062592                       # Number of bytes read from this memory
system.mem_ctrls.bytes_read::total            1063104                       # Number of bytes read from this memory
system.mem_ctrls.bytes_inst_read::cpu0.inst          512                       # Number of instructions bytes read from this memory
system.mem_ctrls.bytes_inst_read::total           512                       # Number of instructions bytes read from this memory
system.mem_ctrls.bytes_written::writebacks      1030208                       # Number of bytes written to this memory
system.mem_ctrls.bytes_written::total         1030208                       # Number of bytes written to this memory
system.mem_ctrls.num_reads::cpu0.inst               8                       # Number of read requests responded to by this memory
system.mem_ctrls.num_reads::cpu0.data           16603                       # Number of read requests responded to by this memory
system.mem_ctrls.num_reads::total               16611                       # Number of read requests responded to by this memory
system.mem_ctrls.num_writes::writebacks         16097                       # Number of write requests responded to by this memory
system.mem_ctrls.num_writes::total              16097                       # Number of write requests responded to by this memory
system.mem_ctrls.bw_read::cpu0.inst             33536                       # Total read bandwidth from this memory (bytes/s)
system.mem_ctrls.bw_read::cpu0.data          69599008                       # Total read bandwidth from this memory (bytes/s)
system.mem_ctrls.bw_read::total              69632543                       # Total read bandwidth from this memory (bytes/s)
system.mem_ctrls.bw_inst_read::cpu0.inst        33536                       # Instruction read bandwidth from this memory (bytes/s)
system.mem_ctrls.bw_inst_read::total            33536                       # Instruction read bandwidth from this memory (bytes/s)
system.mem_ctrls.bw_write::writebacks        67477879                       # Write bandwidth from this memory (bytes/s)
system.mem_ctrls.bw_write::total             67477879                       # Write bandwidth from this memory (bytes/s)
system.mem_ctrls.bw_total::writebacks        67477879                       # Total bandwidth to/from this memory (bytes/s)
system.mem_ctrls.bw_total::cpu0.inst            33536                       # Total bandwidth to/from this memory (bytes/s)
system.mem_ctrls.bw_total::cpu0.data         69599008                       # Total bandwidth to/from this memory (bytes/s)
system.mem_ctrls.bw_total::total            137110422                       # Total bandwidth to/from this memory (bytes/s)
system.mem_ctrls.readReqs                       16613                       # Number of read requests accepted
system.mem_ctrls.writeReqs                      16097                       # Number of write requests accepted
system.mem_ctrls.readBursts                     16613                       # Number of DRAM read bursts, including those serviced by the write queue
system.mem_ctrls.writeBursts                    16097                       # Number of DRAM write bursts, including those merged in the write queue
system.mem_ctrls.bytesReadDRAM                1063104                       # Total number of bytes read from DRAM
system.mem_ctrls.bytesReadWrQ                       0                       # Total number of bytes read from write queue
system.mem_ctrls.bytesWritten                 1030656                       # Total number of bytes written to DRAM
system.mem_ctrls.bytesReadSys                 1063232                       # Total read bytes from the system interface side
system.mem_ctrls.bytesWrittenSys              1030208                       # Total written bytes from the system interface side
system.mem_ctrls.servicedByWrQ                      0                       # Number of DRAM read bursts serviced by the write queue
system.mem_ctrls.mergedWrBursts                     0                       # Number of DRAM write bursts merged with an existing one
system.mem_ctrls.neitherReadNorWriteReqs            0                       # Number of requests that are neither read nor write
system.mem_ctrls.perBankRdBursts::0              1137                       # Per bank write bursts
system.mem_ctrls.perBankRdBursts::1              1052                       # Per bank write bursts
system.mem_ctrls.perBankRdBursts::2              1112                       # Per bank write bursts
system.mem_ctrls.perBankRdBursts::3              1136                       # Per bank write bursts
system.mem_ctrls.perBankRdBursts::4              1071                       # Per bank write bursts
system.mem_ctrls.perBankRdBursts::5              1060                       # Per bank write bursts
system.mem_ctrls.perBankRdBursts::6               996                       # Per bank write bursts
system.mem_ctrls.perBankRdBursts::7              1056                       # Per bank write bursts
system.mem_ctrls.perBankRdBursts::8               977                       # Per bank write bursts
system.mem_ctrls.perBankRdBursts::9              1011                       # Per bank write bursts
system.mem_ctrls.perBankRdBursts::10              959                       # Per bank write bursts
system.mem_ctrls.perBankRdBursts::11             1045                       # Per bank write bursts
system.mem_ctrls.perBankRdBursts::12              995                       # Per bank write bursts
system.mem_ctrls.perBankRdBursts::13              944                       # Per bank write bursts
system.mem_ctrls.perBankRdBursts::14              917                       # Per bank write bursts
system.mem_ctrls.perBankRdBursts::15             1143                       # Per bank write bursts
system.mem_ctrls.perBankWrBursts::0              1085                       # Per bank write bursts
system.mem_ctrls.perBankWrBursts::1              1027                       # Per bank write bursts
system.mem_ctrls.perBankWrBursts::2              1096                       # Per bank write bursts
system.mem_ctrls.perBankWrBursts::3              1129                       # Per bank write bursts
system.mem_ctrls.perBankWrBursts::4              1064                       # Per bank write bursts
system.mem_ctrls.perBankWrBursts::5              1028                       # Per bank write bursts
system.mem_ctrls.perBankWrBursts::6               938                       # Per bank write bursts
system.mem_ctrls.perBankWrBursts::7              1028                       # Per bank write bursts
system.mem_ctrls.perBankWrBursts::8               946                       # Per bank write bursts
system.mem_ctrls.perBankWrBursts::9               982                       # Per bank write bursts
system.mem_ctrls.perBankWrBursts::10              946                       # Per bank write bursts
system.mem_ctrls.perBankWrBursts::11              968                       # Per bank write bursts
system.mem_ctrls.perBankWrBursts::12              964                       # Per bank write bursts
system.mem_ctrls.perBankWrBursts::13              896                       # Per bank write bursts
system.mem_ctrls.perBankWrBursts::14              903                       # Per bank write bursts
system.mem_ctrls.perBankWrBursts::15             1104                       # Per bank write bursts
system.mem_ctrls.numRdRetry                         0                       # Number of times read queue was full causing retry
system.mem_ctrls.numWrRetry                         0                       # Number of times write queue was full causing retry
system.mem_ctrls.totGap                   15268933000                       # Total gap between requests
system.mem_ctrls.readPktSize::0                     0                       # Read request sizes (log2)
system.mem_ctrls.readPktSize::1                     0                       # Read request sizes (log2)
system.mem_ctrls.readPktSize::2                     0                       # Read request sizes (log2)
system.mem_ctrls.readPktSize::3                     0                       # Read request sizes (log2)
system.mem_ctrls.readPktSize::4                     0                       # Read request sizes (log2)
system.mem_ctrls.readPktSize::5                     0                       # Read request sizes (log2)
system.mem_ctrls.readPktSize::6                 16613                       # Read request sizes (log2)
system.mem_ctrls.writePktSize::0                    0                       # Write request sizes (log2)
system.mem_ctrls.writePktSize::1                    0                       # Write request sizes (log2)
system.mem_ctrls.writePktSize::2                    0                       # Write request sizes (log2)
system.mem_ctrls.writePktSize::3                    0                       # Write request sizes (log2)
system.mem_ctrls.writePktSize::4                    0                       # Write request sizes (log2)
system.mem_ctrls.writePktSize::5                    0                       # Write request sizes (log2)
system.mem_ctrls.writePktSize::6                16097                       # Write request sizes (log2)
system.mem_ctrls.rdQLenPdf::0                   16036                       # What read queue length does an incoming req see
system.mem_ctrls.rdQLenPdf::1                     575                       # What read queue length does an incoming req see
system.mem_ctrls.rdQLenPdf::2                       2                       # What read queue length does an incoming req see
system.mem_ctrls.rdQLenPdf::3                       0                       # What read queue length does an incoming req see
system.mem_ctrls.rdQLenPdf::4                       0                       # What read queue length does an incoming req see
system.mem_ctrls.rdQLenPdf::5                       0                       # What read queue length does an incoming req see
system.mem_ctrls.rdQLenPdf::6                       0                       # What read queue length does an incoming req see
system.mem_ctrls.rdQLenPdf::7                       0                       # What read queue length does an incoming req see
system.mem_ctrls.rdQLenPdf::8                       0                       # What read queue length does an incoming req see
system.mem_ctrls.rdQLenPdf::9                       0                       # What read queue length does an incoming req see
system.mem_ctrls.rdQLenPdf::10                      0                       # What read queue length does an incoming req see
system.mem_ctrls.rdQLenPdf::11                      0                       # What read queue length does an incoming req see
system.mem_ctrls.rdQLenPdf::12                      0                       # What read queue length does an incoming req see
system.mem_ctrls.rdQLenPdf::13                      0                       # What read queue length does an incoming req see
system.mem_ctrls.rdQLenPdf::14                      0                       # What read queue length does an incoming req see
system.mem_ctrls.rdQLenPdf::15                      0                       # What read queue length does an incoming req see
system.mem_ctrls.rdQLenPdf::16                      0                       # What read queue length does an incoming req see
system.mem_ctrls.rdQLenPdf::17                      0                       # What read queue length does an incoming req see
system.mem_ctrls.rdQLenPdf::18                      0                       # What read queue length does an incoming req see
system.mem_ctrls.rdQLenPdf::19                      0                       # What read queue length does an incoming req see
system.mem_ctrls.rdQLenPdf::20                      0                       # What read queue length does an incoming req see
system.mem_ctrls.rdQLenPdf::21                      0                       # What read queue length does an incoming req see
system.mem_ctrls.rdQLenPdf::22                      0                       # What read queue length does an incoming req see
system.mem_ctrls.rdQLenPdf::23                      0                       # What read queue length does an incoming req see
system.mem_ctrls.rdQLenPdf::24                      0                       # What read queue length does an incoming req see
system.mem_ctrls.rdQLenPdf::25                      0                       # What read queue length does an incoming req see
system.mem_ctrls.rdQLenPdf::26                      0                       # What read queue length does an incoming req see
system.mem_ctrls.rdQLenPdf::27                      0                       # What read queue length does an incoming req see
system.mem_ctrls.rdQLenPdf::28                      0                       # What read queue length does an incoming req see
system.mem_ctrls.rdQLenPdf::29                      0                       # What read queue length does an incoming req see
system.mem_ctrls.rdQLenPdf::30                      0                       # What read queue length does an incoming req see
system.mem_ctrls.rdQLenPdf::31                      0                       # What read queue length does an incoming req see
system.mem_ctrls.wrQLenPdf::0                       0                       # What write queue length does an incoming req see
system.mem_ctrls.wrQLenPdf::1                       0                       # What write queue length does an incoming req see
system.mem_ctrls.wrQLenPdf::2                       0                       # What write queue length does an incoming req see
system.mem_ctrls.wrQLenPdf::3                       0                       # What write queue length does an incoming req see
system.mem_ctrls.wrQLenPdf::4                       0                       # What write queue length does an incoming req see
system.mem_ctrls.wrQLenPdf::5                       0                       # What write queue length does an incoming req see
system.mem_ctrls.wrQLenPdf::6                       0                       # What write queue length does an incoming req see
system.mem_ctrls.wrQLenPdf::7                       0                       # What write queue length does an incoming req see
system.mem_ctrls.wrQLenPdf::8                       0                       # What write queue length does an incoming req see
system.mem_ctrls.wrQLenPdf::9                       0                       # What write queue length does an incoming req see
system.mem_ctrls.wrQLenPdf::10                      0                       # What write queue length does an incoming req see
system.mem_ctrls.wrQLenPdf::11                      0                       # What write queue length does an incoming req see
system.mem_ctrls.wrQLenPdf::12                      0                       # What write queue length does an incoming req see
system.mem_ctrls.wrQLenPdf::13                      0                       # What write queue length does an incoming req see
system.mem_ctrls.wrQLenPdf::14                      0                       # What write queue length does an incoming req see
system.mem_ctrls.wrQLenPdf::15                    640                       # What write queue length does an incoming req see
system.mem_ctrls.wrQLenPdf::16                    643                       # What write queue length does an incoming req see
system.mem_ctrls.wrQLenPdf::17                    922                       # What write queue length does an incoming req see
system.mem_ctrls.wrQLenPdf::18                    925                       # What write queue length does an incoming req see
system.mem_ctrls.wrQLenPdf::19                    925                       # What write queue length does an incoming req see
system.mem_ctrls.wrQLenPdf::20                    924                       # What write queue length does an incoming req see
system.mem_ctrls.wrQLenPdf::21                    924                       # What write queue length does an incoming req see
system.mem_ctrls.wrQLenPdf::22                    925                       # What write queue length does an incoming req see
system.mem_ctrls.wrQLenPdf::23                    923                       # What write queue length does an incoming req see
system.mem_ctrls.wrQLenPdf::24                    923                       # What write queue length does an incoming req see
system.mem_ctrls.wrQLenPdf::25                    923                       # What write queue length does an incoming req see
system.mem_ctrls.wrQLenPdf::26                    923                       # What write queue length does an incoming req see
system.mem_ctrls.wrQLenPdf::27                    923                       # What write queue length does an incoming req see
system.mem_ctrls.wrQLenPdf::28                    924                       # What write queue length does an incoming req see
system.mem_ctrls.wrQLenPdf::29                    926                       # What write queue length does an incoming req see
system.mem_ctrls.wrQLenPdf::30                    955                       # What write queue length does an incoming req see
system.mem_ctrls.wrQLenPdf::31                    925                       # What write queue length does an incoming req see
system.mem_ctrls.wrQLenPdf::32                    924                       # What write queue length does an incoming req see
system.mem_ctrls.wrQLenPdf::33                      0                       # What write queue length does an incoming req see
system.mem_ctrls.wrQLenPdf::34                      0                       # What write queue length does an incoming req see
system.mem_ctrls.wrQLenPdf::35                      0                       # What write queue length does an incoming req see
system.mem_ctrls.wrQLenPdf::36                      0                       # What write queue length does an incoming req see
system.mem_ctrls.wrQLenPdf::37                      0                       # What write queue length does an incoming req see
system.mem_ctrls.wrQLenPdf::38                      0                       # What write queue length does an incoming req see
system.mem_ctrls.wrQLenPdf::39                      0                       # What write queue length does an incoming req see
system.mem_ctrls.wrQLenPdf::40                      0                       # What write queue length does an incoming req see
system.mem_ctrls.wrQLenPdf::41                      0                       # What write queue length does an incoming req see
system.mem_ctrls.wrQLenPdf::42                      0                       # What write queue length does an incoming req see
system.mem_ctrls.wrQLenPdf::43                      0                       # What write queue length does an incoming req see
system.mem_ctrls.wrQLenPdf::44                      0                       # What write queue length does an incoming req see
system.mem_ctrls.wrQLenPdf::45                      0                       # What write queue length does an incoming req see
system.mem_ctrls.wrQLenPdf::46                      0                       # What write queue length does an incoming req see
system.mem_ctrls.wrQLenPdf::47                      0                       # What write queue length does an incoming req see
system.mem_ctrls.wrQLenPdf::48                      0                       # What write queue length does an incoming req see
system.mem_ctrls.wrQLenPdf::49                      0                       # What write queue length does an incoming req see
system.mem_ctrls.wrQLenPdf::50                      0                       # What write queue length does an incoming req see
system.mem_ctrls.wrQLenPdf::51                      0                       # What write queue length does an incoming req see
system.mem_ctrls.wrQLenPdf::52                      0                       # What write queue length does an incoming req see
system.mem_ctrls.wrQLenPdf::53                      0                       # What write queue length does an incoming req see
system.mem_ctrls.wrQLenPdf::54                      0                       # What write queue length does an incoming req see
system.mem_ctrls.wrQLenPdf::55                      0                       # What write queue length does an incoming req see
system.mem_ctrls.wrQLenPdf::56                      0                       # What write queue length does an incoming req see
system.mem_ctrls.wrQLenPdf::57                      0                       # What write queue length does an incoming req see
system.mem_ctrls.wrQLenPdf::58                      0                       # What write queue length does an incoming req see
system.mem_ctrls.wrQLenPdf::59                      0                       # What write queue length does an incoming req see
system.mem_ctrls.wrQLenPdf::60                      0                       # What write queue length does an incoming req see
system.mem_ctrls.wrQLenPdf::61                      0                       # What write queue length does an incoming req see
system.mem_ctrls.wrQLenPdf::62                      0                       # What write queue length does an incoming req see
system.mem_ctrls.wrQLenPdf::63                      0                       # What write queue length does an incoming req see
system.mem_ctrls.bytesPerActivate::samples        19263                       # Bytes accessed per row activation
system.mem_ctrls.bytesPerActivate::mean    108.680060                       # Bytes accessed per row activation
system.mem_ctrls.bytesPerActivate::gmean    92.114234                       # Bytes accessed per row activation
system.mem_ctrls.bytesPerActivate::stdev    83.713194                       # Bytes accessed per row activation
system.mem_ctrls.bytesPerActivate::0-127        11690     60.69%     60.69% # Bytes accessed per row activation
system.mem_ctrls.bytesPerActivate::128-255         6316     32.79%     93.47% # Bytes accessed per row activation
system.mem_ctrls.bytesPerActivate::256-383          774      4.02%     97.49% # Bytes accessed per row activation
system.mem_ctrls.bytesPerActivate::384-511          264      1.37%     98.86% # Bytes accessed per row activation
system.mem_ctrls.bytesPerActivate::512-639          136      0.71%     99.57% # Bytes accessed per row activation
system.mem_ctrls.bytesPerActivate::640-767           70      0.36%     99.93% # Bytes accessed per row activation
system.mem_ctrls.bytesPerActivate::768-895            8      0.04%     99.97% # Bytes accessed per row activation
system.mem_ctrls.bytesPerActivate::896-1023            4      0.02%     99.99% # Bytes accessed per row activation
system.mem_ctrls.bytesPerActivate::1024-1151            1      0.01%    100.00% # Bytes accessed per row activation
system.mem_ctrls.bytesPerActivate::total        19263                       # Bytes accessed per row activation
system.mem_ctrls.rdPerTurnAround::samples          924                       # Reads before turning the bus around for writes
system.mem_ctrls.rdPerTurnAround::mean      17.982684                       # Reads before turning the bus around for writes
system.mem_ctrls.rdPerTurnAround::gmean     17.928449                       # Reads before turning the bus around for writes
system.mem_ctrls.rdPerTurnAround::stdev      1.417933                       # Reads before turning the bus around for writes
system.mem_ctrls.rdPerTurnAround::15                3      0.32%      0.32% # Reads before turning the bus around for writes
system.mem_ctrls.rdPerTurnAround::16              189     20.45%     20.78% # Reads before turning the bus around for writes
system.mem_ctrls.rdPerTurnAround::17               61      6.60%     27.38% # Reads before turning the bus around for writes
system.mem_ctrls.rdPerTurnAround::18              401     43.40%     70.78% # Reads before turning the bus around for writes
system.mem_ctrls.rdPerTurnAround::19              168     18.18%     88.96% # Reads before turning the bus around for writes
system.mem_ctrls.rdPerTurnAround::20               75      8.12%     97.08% # Reads before turning the bus around for writes
system.mem_ctrls.rdPerTurnAround::21               13      1.41%     98.48% # Reads before turning the bus around for writes
system.mem_ctrls.rdPerTurnAround::22                4      0.43%     98.92% # Reads before turning the bus around for writes
system.mem_ctrls.rdPerTurnAround::23                6      0.65%     99.57% # Reads before turning the bus around for writes
system.mem_ctrls.rdPerTurnAround::24                1      0.11%     99.68% # Reads before turning the bus around for writes
system.mem_ctrls.rdPerTurnAround::25                1      0.11%     99.78% # Reads before turning the bus around for writes
system.mem_ctrls.rdPerTurnAround::26                2      0.22%    100.00% # Reads before turning the bus around for writes
system.mem_ctrls.rdPerTurnAround::total           924                       # Reads before turning the bus around for writes
system.mem_ctrls.wrPerTurnAround::samples          924                       # Writes before turning the bus around for reads
system.mem_ctrls.wrPerTurnAround::mean      17.428571                       # Writes before turning the bus around for reads
system.mem_ctrls.wrPerTurnAround::gmean     17.401080                       # Writes before turning the bus around for reads
system.mem_ctrls.wrPerTurnAround::stdev      0.966551                       # Writes before turning the bus around for reads
system.mem_ctrls.wrPerTurnAround::16              281     30.41%     30.41% # Writes before turning the bus around for reads
system.mem_ctrls.wrPerTurnAround::17                2      0.22%     30.63% # Writes before turning the bus around for reads
system.mem_ctrls.wrPerTurnAround::18              606     65.58%     96.21% # Writes before turning the bus around for reads
system.mem_ctrls.wrPerTurnAround::19               34      3.68%     99.89% # Writes before turning the bus around for reads
system.mem_ctrls.wrPerTurnAround::20                1      0.11%    100.00% # Writes before turning the bus around for reads
system.mem_ctrls.wrPerTurnAround::total           924                       # Writes before turning the bus around for reads
system.mem_ctrls.totQLat                    437698750                       # Total ticks spent queuing
system.mem_ctrls.totMemAccLat               749155000                       # Total ticks spent from burst creation until serviced by the DRAM
system.mem_ctrls.totBusLat                   83055000                       # Total ticks spent in databus transfers
system.mem_ctrls.avgQLat                     26346.76                       # Average queueing delay per DRAM burst
system.mem_ctrls.avgBusLat                    4999.40                       # Average bus latency per DRAM burst
system.mem_ctrls.avgMemAccLat                45094.50                       # Average memory access latency per DRAM burst
system.mem_ctrls.avgRdBW                        69.63                       # Average DRAM read bandwidth in MiByte/s
system.mem_ctrls.avgWrBW                        67.51                       # Average achieved write bandwidth in MiByte/s
system.mem_ctrls.avgRdBWSys                     69.64                       # Average system read bandwidth in MiByte/s
system.mem_ctrls.avgWrBWSys                     67.48                       # Average system write bandwidth in MiByte/s
system.mem_ctrls.peakBW                      12800.00                       # Theoretical peak bandwidth in MiByte/s
system.mem_ctrls.busUtil                         1.07                       # Data bus utilization in percentage
system.mem_ctrls.busUtilRead                     0.54                       # Data bus utilization in percentage for reads
system.mem_ctrls.busUtilWrite                    0.53                       # Data bus utilization in percentage for writes
system.mem_ctrls.avgRdQLen                       1.08                       # Average read queue length when enqueuing
system.mem_ctrls.avgWrQLen                      24.84                       # Average write queue length when enqueuing
system.mem_ctrls.readRowHits                     6059                       # Number of row buffer hits during reads
system.mem_ctrls.writeRowHits                    7390                       # Number of row buffer hits during writes
system.mem_ctrls.readRowHitRate                 36.47                       # Row buffer hit rate for reads
system.mem_ctrls.writeRowHitRate                45.91                       # Row buffer hit rate for writes
system.mem_ctrls.avgGap                     466797.10                       # Average gap between requests
system.mem_ctrls.pageHitRate                    41.12                       # Row buffer hit rate, read and write combined
system.mem_ctrls_0.actEnergy                 71407140                       # Energy for activate commands per rank (pJ)
system.mem_ctrls_0.preEnergy                 37942410                       # Energy for precharge commands per rank (pJ)
system.mem_ctrls_0.readEnergy                61546800                       # Energy for read commands per rank (pJ)
system.mem_ctrls_0.writeEnergy               43821900                       # Energy for write commands per rank (pJ)
system.mem_ctrls_0.refreshEnergy         1223133600.000000                       # Energy for refresh commands per rank (pJ)
system.mem_ctrls_0.actBackEnergy            971276010                       # Energy for active background per rank (pJ)
system.mem_ctrls_0.preBackEnergy             35718240                       # Energy for precharge background per rank (pJ)
system.mem_ctrls_0.actPowerDownEnergy      4545440490                       # Energy for active power-down per rank (pJ)
system.mem_ctrls_0.prePowerDownEnergy      1105211040                       # Energy for precharge power-down per rank (pJ)
system.mem_ctrls_0.selfRefreshEnergy         80129160                       # Energy for self refresh per rank (pJ)
system.mem_ctrls_0.totalEnergy             8175967500                       # Total energy per rank (pJ)
system.mem_ctrls_0.averagePower            535.519959                       # Core power per rank (mW)
system.mem_ctrls_0.totalIdleTime          13041291250                       # Total Idle time Per DRAM Rank
system.mem_ctrls_0.memoryStateTime::IDLE     36289000                       # Time in different power states
system.mem_ctrls_0.memoryStateTime::REF     517784000                       # Time in different power states
system.mem_ctrls_0.memoryStateTime::SREF    197348250                       # Time in different power states
system.mem_ctrls_0.memoryStateTime::PRE_PDN   2878001500                       # Time in different power states
system.mem_ctrls_0.memoryStateTime::ACT    1670181750                       # Time in different power states
system.mem_ctrls_0.memoryStateTime::ACT_PDN   9967739625                       # Time in different power states
system.mem_ctrls_1.actEnergy                 66152100                       # Energy for activate commands per rank (pJ)
system.mem_ctrls_1.preEnergy                 35160675                       # Energy for precharge commands per rank (pJ)
system.mem_ctrls_1.readEnergy                57055740                       # Energy for read commands per rank (pJ)
system.mem_ctrls_1.writeEnergy               40240980                       # Energy for write commands per rank (pJ)
system.mem_ctrls_1.refreshEnergy         1226821440.000000                       # Energy for refresh commands per rank (pJ)
system.mem_ctrls_1.actBackEnergy            955766310                       # Energy for active background per rank (pJ)
system.mem_ctrls_1.preBackEnergy             37260000                       # Energy for precharge background per rank (pJ)
system.mem_ctrls_1.actPowerDownEnergy      4404651060                       # Energy for active power-down per rank (pJ)
system.mem_ctrls_1.prePowerDownEnergy      1218209280                       # Energy for precharge power-down per rank (pJ)
system.mem_ctrls_1.selfRefreshEnergy         97983480                       # Energy for self refresh per rank (pJ)
system.mem_ctrls_1.totalEnergy             8139458835                       # Total energy per rank (pJ)
system.mem_ctrls_1.averagePower            533.128668                       # Core power per rank (mW)
system.mem_ctrls_1.totalIdleTime          13074257250                       # Total Idle time Per DRAM Rank
system.mem_ctrls_1.memoryStateTime::IDLE     38171500                       # Time in different power states
system.mem_ctrls_1.memoryStateTime::REF     519428000                       # Time in different power states
system.mem_ctrls_1.memoryStateTime::SREF    242239750                       # Time in different power states
system.mem_ctrls_1.memoryStateTime::PRE_PDN   3172409250                       # Time in different power states
system.mem_ctrls_1.memoryStateTime::ACT    1635487375                       # Time in different power states
system.mem_ctrls_1.memoryStateTime::ACT_PDN   9659608250                       # Time in different power states
system.pwrStateResidencyTicks::UNDEFINED  15267344125                       # Cumulative time (in ticks) in various power states
system.cpu0.branchPred.lookups               13251891                       # Number of BP lookups
system.cpu0.branchPred.condPredicted         13251891                       # Number of conditional branches predicted
system.cpu0.branchPred.condIncorrect          1353068                       # Number of conditional branches incorrect
system.cpu0.branchPred.BTBLookups            11091457                       # Number of BTB lookups
system.cpu0.branchPred.BTBHits                      0                       # Number of BTB hits
system.cpu0.branchPred.BTBCorrect                   0                       # Number of correct BTB predictions (this stat may not work properly.
system.cpu0.branchPred.BTBHitPct             0.000000                       # BTB Hit Percentage
system.cpu0.branchPred.usedRAS                1080949                       # Number of times the RAS was used to get a target.
system.cpu0.branchPred.RASInCorrect            191779                       # Number of incorrect RAS predictions.
system.cpu0.branchPred.indirectLookups       11091457                       # Number of indirect predictor lookups.
system.cpu0.branchPred.indirectHits           2696024                       # Number of indirect target hits.
system.cpu0.branchPred.indirectMisses         8395433                       # Number of indirect misses.
system.cpu0.branchPredindirectMispredicted       884992                       # Number of mispredicted indirect branches.
system.cpu_voltage_domain.voltage                   1                       # Voltage in Volts
system.cpu_clk_domain.clock                       500                       # Clock period in ticks
system.cpu0.dtb.walker.pwrStateResidencyTicks::UNDEFINED  15267344125                       # Cumulative time (in ticks) in various power states
system.cpu0.dtb.rdAccesses                    7026363                       # TLB accesses on read requests
system.cpu0.dtb.wrAccesses                    2425210                       # TLB accesses on write requests
system.cpu0.dtb.rdMisses                        79697                       # TLB misses on read requests
system.cpu0.dtb.wrMisses                        14723                       # TLB misses on write requests
system.cpu0.apic_clk_domain.clock                8000                       # Clock period in ticks
system.cpu0.interrupts.pwrStateResidencyTicks::UNDEFINED  15267344125                       # Cumulative time (in ticks) in various power states
system.cpu0.itb.walker.pwrStateResidencyTicks::UNDEFINED  15267344125                       # Cumulative time (in ticks) in various power states
system.cpu0.itb.rdAccesses                          0                       # TLB accesses on read requests
system.cpu0.itb.wrAccesses                    6557729                       # TLB accesses on write requests
system.cpu0.itb.rdMisses                            0                       # TLB misses on read requests
system.cpu0.itb.wrMisses                         2236                       # TLB misses on write requests
system.cpu0.workload.numSyscalls                   19                       # Number of system calls
system.cpu0.pwrStateResidencyTicks::ON    15267344125                       # Cumulative time (in ticks) in various power states
system.cpu0.numCycles                        30534688                       # number of cpu cycles simulated
system.cpu0.numWorkItemsStarted                     0                       # number of work items this cpu started
system.cpu0.numWorkItemsCompleted                   0                       # number of work items this cpu completed
system.cpu0.fetch.icacheStallCycles           7401158                       # Number of cycles fetch is stalled on an Icache miss
system.cpu0.fetch.Insts                      56490190                       # Number of instructions fetch has processed
system.cpu0.fetch.Branches                   13251891                       # Number of branches that fetch encountered
system.cpu0.fetch.predictedBranches           3776973                       # Number of branches that fetch has predicted taken
system.cpu0.fetch.Cycles                     21762458                       # Number of cycles fetch has run and was not squashing or blocked
system.cpu0.fetch.SquashCycles                2708154                       # Number of cycles fetch has spent squashing
system.cpu0.fetch.MiscStallCycles                 804                       # Number of cycles fetch has spent waiting on interrupts, or bad addresses, or out of MSHRs
system.cpu0.fetch.PendingTrapStallCycles        12643                       # Number of stall cycles due to pending traps
system.cpu0.fetch.CacheLines                  6555493                       # Number of cache lines fetched
system.cpu0.fetch.IcacheSquashes               313368                       # Number of outstanding Icache misses that were squashed
system.cpu0.fetch.rateDist::samples          30531140                       # Number of instructions fetched each cycle (Total)
system.cpu0.fetch.rateDist::mean             4.032220                       # Number of instructions fetched each cycle (Total)
system.cpu0.fetch.rateDist::stdev            3.669616                       # Number of instructions fetched each cycle (Total)
system.cpu0.fetch.rateDist::underflows              0      0.00%      0.00% # Number of instructions fetched each cycle (Total)
system.cpu0.fetch.rateDist::0                12104341     39.65%     39.65% # Number of instructions fetched each cycle (Total)
system.cpu0.fetch.rateDist::1                  535317      1.75%     41.40% # Number of instructions fetched each cycle (Total)
system.cpu0.fetch.rateDist::2                  907902      2.97%     44.37% # Number of instructions fetched each cycle (Total)
system.cpu0.fetch.rateDist::3                 1343450      4.40%     48.77% # Number of instructions fetched each cycle (Total)
system.cpu0.fetch.rateDist::4                  609374      2.00%     50.77% # Number of instructions fetched each cycle (Total)
system.cpu0.fetch.rateDist::5                 1152905      3.78%     54.55% # Number of instructions fetched each cycle (Total)
system.cpu0.fetch.rateDist::6                  995970      3.26%     57.81% # Number of instructions fetched each cycle (Total)
system.cpu0.fetch.rateDist::7                  506097      1.66%     59.47% # Number of instructions fetched each cycle (Total)
system.cpu0.fetch.rateDist::8                12375784     40.53%    100.00% # Number of instructions fetched each cycle (Total)
system.cpu0.fetch.rateDist::overflows               0      0.00%    100.00% # Number of instructions fetched each cycle (Total)
system.cpu0.fetch.rateDist::min_value               0                       # Number of instructions fetched each cycle (Total)
system.cpu0.fetch.rateDist::max_value               8                       # Number of instructions fetched each cycle (Total)
system.cpu0.fetch.rateDist::total            30531140                       # Number of instructions fetched each cycle (Total)
system.cpu0.fetch.branchRate                 0.433995                       # Number of branch fetches per cycle
system.cpu0.fetch.rate                       1.850033                       # Number of inst fetches per cycle
system.cpu0.decode.IdleCycles                 5591584                       # Number of cycles decode is idle
system.cpu0.decode.BlockedCycles              8345604                       # Number of cycles decode is blocked
system.cpu0.decode.RunCycles                 13784436                       # Number of cycles decode is running
system.cpu0.decode.UnblockCycles              1455439                       # Number of cycles decode is unblocking
system.cpu0.decode.SquashCycles               1354077                       # Number of cycles decode is squashing
system.cpu0.decode.DecodedInsts             110403404                       # Number of instructions handled by decode
system.cpu0.rename.SquashCycles               1354077                       # Number of cycles rename is squashing
system.cpu0.rename.IdleCycles                 6660174                       # Number of cycles rename is idle
system.cpu0.rename.BlockCycles                6882035                       # Number of cycles rename is blocking
system.cpu0.rename.serializeStallCycles        222180                       # count of cycles rename stalled for serializing inst
system.cpu0.rename.RunCycles                 13959896                       # Number of cycles rename is running
system.cpu0.rename.UnblockCycles              1452778                       # Number of cycles rename is unblocking
system.cpu0.rename.RenamedInsts             103362330                       # Number of instructions processed by rename
system.cpu0.rename.ROBFullEvents                36550                       # Number of times rename has blocked due to ROB full
system.cpu0.rename.IQFullEvents                779462                       # Number of times rename has blocked due to IQ full
system.cpu0.rename.LQFullEvents                   175                       # Number of times rename has blocked due to LQ full
system.cpu0.rename.SQFullEvents                429819                       # Number of times rename has blocked due to SQ full
system.cpu0.rename.RenamedOperands          116141619                       # Number of destination operands rename has renamed
system.cpu0.rename.RenameLookups            256698597                       # Number of register rename lookups that rename has made
system.cpu0.rename.int_rename_lookups       140922459                       # Number of integer rename lookups
system.cpu0.rename.fp_rename_lookups         19267051                       # Number of floating rename lookups
system.cpu0.rename.CommittedMaps             49273544                       # Number of HB maps that are committed
system.cpu0.rename.UndoneMaps                66867927                       # Number of HB maps that are undone due to squashing
system.cpu0.rename.serializingInsts             30969                       # count of serializing insts renamed
system.cpu0.rename.tempSerializingInsts         33267                       # count of temporary serializing insts renamed
system.cpu0.rename.skidInsts                  3442375                       # count of insts added to the skid buffer
system.cpu0.memDep0.insertedLoads             9517080                       # Number of loads inserted to the mem dependence unit.
system.cpu0.memDep0.insertedStores            3340290                       # Number of stores inserted to the mem dependence unit.
system.cpu0.memDep0.conflictingLoads           165499                       # Number of conflicting loads.
system.cpu0.memDep0.conflictingStores          172685                       # Number of conflicting stores.
system.cpu0.iq.iqInstsAdded                  89918571                       # Number of instructions added to the IQ (excludes non-spec)
system.cpu0.iq.iqNonSpecInstsAdded             219990                       # Number of non-speculative instructions added to the IQ
system.cpu0.iq.iqInstsIssued                 71775714                       # Number of instructions issued
system.cpu0.iq.iqSquashedInstsIssued           669486                       # Number of squashed instructions issued
system.cpu0.iq.iqSquashedInstsExamined       47543601                       # Number of squashed instructions iterated over during squash; mainly for profiling
system.cpu0.iq.iqSquashedOperandsExamined     68745708                       # Number of squashed operands that are examined and possibly removed from graph
system.cpu0.iq.iqSquashedNonSpecRemoved        219881                       # Number of squashed non-spec instructions that were removed
system.cpu0.iq.issued_per_cycle::samples     30531140                       # Number of insts issued each cycle
system.cpu0.iq.issued_per_cycle::mean        2.350902                       # Number of insts issued each cycle
system.cpu0.iq.issued_per_cycle::stdev       2.594540                       # Number of insts issued each cycle
system.cpu0.iq.issued_per_cycle::underflows            0      0.00%      0.00% # Number of insts issued each cycle
system.cpu0.iq.issued_per_cycle::0           13122629     42.98%     42.98% # Number of insts issued each cycle
system.cpu0.iq.issued_per_cycle::1            2236391      7.32%     50.31% # Number of insts issued each cycle
system.cpu0.iq.issued_per_cycle::2            2804484      9.19%     59.49% # Number of insts issued each cycle
system.cpu0.iq.issued_per_cycle::3            2349065      7.69%     67.19% # Number of insts issued each cycle
system.cpu0.iq.issued_per_cycle::4            2381002      7.80%     74.98% # Number of insts issued each cycle
system.cpu0.iq.issued_per_cycle::5            2262488      7.41%     82.39% # Number of insts issued each cycle
system.cpu0.iq.issued_per_cycle::6            2655991      8.70%     91.09% # Number of insts issued each cycle
system.cpu0.iq.issued_per_cycle::7            1641954      5.38%     96.47% # Number of insts issued each cycle
system.cpu0.iq.issued_per_cycle::8            1077136      3.53%    100.00% # Number of insts issued each cycle
system.cpu0.iq.issued_per_cycle::overflows            0      0.00%    100.00% # Number of insts issued each cycle
system.cpu0.iq.issued_per_cycle::min_value            0                       # Number of insts issued each cycle
system.cpu0.iq.issued_per_cycle::max_value            8                       # Number of insts issued each cycle
system.cpu0.iq.issued_per_cycle::total       30531140                       # Number of insts issued each cycle
system.cpu0.iq.fu_full::No_OpClass                  0      0.00%      0.00% # attempts to use FU when none available
system.cpu0.iq.fu_full::IntAlu                1458422     92.86%     92.86% # attempts to use FU when none available
system.cpu0.iq.fu_full::IntMult                     0      0.00%     92.86% # attempts to use FU when none available
system.cpu0.iq.fu_full::IntDiv                      0      0.00%     92.86% # attempts to use FU when none available
system.cpu0.iq.fu_full::FloatAdd                83981      5.35%     98.20% # attempts to use FU when none available
system.cpu0.iq.fu_full::FloatCmp                    0      0.00%     98.20% # attempts to use FU when none available
system.cpu0.iq.fu_full::FloatCvt                    0      0.00%     98.20% # attempts to use FU when none available
system.cpu0.iq.fu_full::FloatMult                   0      0.00%     98.20% # attempts to use FU when none available
system.cpu0.iq.fu_full::FloatMultAcc                0      0.00%     98.20% # attempts to use FU when none available
system.cpu0.iq.fu_full::FloatDiv                    0      0.00%     98.20% # attempts to use FU when none available
system.cpu0.iq.fu_full::FloatMisc                   0      0.00%     98.20% # attempts to use FU when none available
system.cpu0.iq.fu_full::FloatSqrt                   0      0.00%     98.20% # attempts to use FU when none available
system.cpu0.iq.fu_full::SimdAdd                     0      0.00%     98.20% # attempts to use FU when none available
system.cpu0.iq.fu_full::SimdAddAcc                  0      0.00%     98.20% # attempts to use FU when none available
system.cpu0.iq.fu_full::SimdAlu                     0      0.00%     98.20% # attempts to use FU when none available
system.cpu0.iq.fu_full::SimdCmp                     0      0.00%     98.20% # attempts to use FU when none available
system.cpu0.iq.fu_full::SimdCvt                     0      0.00%     98.20% # attempts to use FU when none available
system.cpu0.iq.fu_full::SimdMisc                    0      0.00%     98.20% # attempts to use FU when none available
system.cpu0.iq.fu_full::SimdMult                    0      0.00%     98.20% # attempts to use FU when none available
system.cpu0.iq.fu_full::SimdMultAcc                 0      0.00%     98.20% # attempts to use FU when none available
system.cpu0.iq.fu_full::SimdShift                   0      0.00%     98.20% # attempts to use FU when none available
system.cpu0.iq.fu_full::SimdShiftAcc                0      0.00%     98.20% # attempts to use FU when none available
system.cpu0.iq.fu_full::SimdSqrt                    0      0.00%     98.20% # attempts to use FU when none available
system.cpu0.iq.fu_full::SimdFloatAdd                0      0.00%     98.20% # attempts to use FU when none available
system.cpu0.iq.fu_full::SimdFloatAlu                0      0.00%     98.20% # attempts to use FU when none available
system.cpu0.iq.fu_full::SimdFloatCmp                0      0.00%     98.20% # attempts to use FU when none available
system.cpu0.iq.fu_full::SimdFloatCvt                0      0.00%     98.20% # attempts to use FU when none available
system.cpu0.iq.fu_full::SimdFloatDiv                0      0.00%     98.20% # attempts to use FU when none available
system.cpu0.iq.fu_full::SimdFloatMisc               0      0.00%     98.20% # attempts to use FU when none available
system.cpu0.iq.fu_full::SimdFloatMult               0      0.00%     98.20% # attempts to use FU when none available
system.cpu0.iq.fu_full::SimdFloatMultAcc            0      0.00%     98.20% # attempts to use FU when none available
system.cpu0.iq.fu_full::SimdFloatSqrt               0      0.00%     98.20% # attempts to use FU when none available
system.cpu0.iq.fu_full::MemRead                  3772      0.24%     98.44% # attempts to use FU when none available
system.cpu0.iq.fu_full::MemWrite                 1275      0.08%     98.52% # attempts to use FU when none available
system.cpu0.iq.fu_full::FloatMemRead            22725      1.45%     99.97% # attempts to use FU when none available
system.cpu0.iq.fu_full::FloatMemWrite             465      0.03%    100.00% # attempts to use FU when none available
system.cpu0.iq.fu_full::IprAccess                   0      0.00%    100.00% # attempts to use FU when none available
system.cpu0.iq.fu_full::InstPrefetch                0      0.00%    100.00% # attempts to use FU when none available
system.cpu0.iq.FU_type_0::No_OpClass          1832603      2.55%      2.55% # Type of FU issued
system.cpu0.iq.FU_type_0::IntAlu             54569783     76.03%     78.58% # Type of FU issued
system.cpu0.iq.FU_type_0::IntMult                2686      0.00%     78.59% # Type of FU issued
system.cpu0.iq.FU_type_0::IntDiv                78161      0.11%     78.69% # Type of FU issued
system.cpu0.iq.FU_type_0::FloatAdd            5021132      7.00%     85.69% # Type of FU issued
system.cpu0.iq.FU_type_0::FloatCmp                  0      0.00%     85.69% # Type of FU issued
system.cpu0.iq.FU_type_0::FloatCvt                  0      0.00%     85.69% # Type of FU issued
system.cpu0.iq.FU_type_0::FloatMult                 0      0.00%     85.69% # Type of FU issued
system.cpu0.iq.FU_type_0::FloatMultAcc              0      0.00%     85.69% # Type of FU issued
system.cpu0.iq.FU_type_0::FloatDiv                  0      0.00%     85.69% # Type of FU issued
system.cpu0.iq.FU_type_0::FloatMisc                 0      0.00%     85.69% # Type of FU issued
system.cpu0.iq.FU_type_0::FloatSqrt                 0      0.00%     85.69% # Type of FU issued
system.cpu0.iq.FU_type_0::SimdAdd                   0      0.00%     85.69% # Type of FU issued
system.cpu0.iq.FU_type_0::SimdAddAcc                0      0.00%     85.69% # Type of FU issued
system.cpu0.iq.FU_type_0::SimdAlu                   0      0.00%     85.69% # Type of FU issued
system.cpu0.iq.FU_type_0::SimdCmp                   0      0.00%     85.69% # Type of FU issued
system.cpu0.iq.FU_type_0::SimdCvt                   0      0.00%     85.69% # Type of FU issued
system.cpu0.iq.FU_type_0::SimdMisc                  0      0.00%     85.69% # Type of FU issued
system.cpu0.iq.FU_type_0::SimdMult                  0      0.00%     85.69% # Type of FU issued
system.cpu0.iq.FU_type_0::SimdMultAcc               0      0.00%     85.69% # Type of FU issued
system.cpu0.iq.FU_type_0::SimdShift                 0      0.00%     85.69% # Type of FU issued
system.cpu0.iq.FU_type_0::SimdShiftAcc              0      0.00%     85.69% # Type of FU issued
system.cpu0.iq.FU_type_0::SimdSqrt                  0      0.00%     85.69% # Type of FU issued
system.cpu0.iq.FU_type_0::SimdFloatAdd              0      0.00%     85.69% # Type of FU issued
system.cpu0.iq.FU_type_0::SimdFloatAlu              0      0.00%     85.69% # Type of FU issued
system.cpu0.iq.FU_type_0::SimdFloatCmp              0      0.00%     85.69% # Type of FU issued
system.cpu0.iq.FU_type_0::SimdFloatCvt              0      0.00%     85.69% # Type of FU issued
system.cpu0.iq.FU_type_0::SimdFloatDiv              0      0.00%     85.69% # Type of FU issued
system.cpu0.iq.FU_type_0::SimdFloatMisc             0      0.00%     85.69% # Type of FU issued
system.cpu0.iq.FU_type_0::SimdFloatMult             0      0.00%     85.69% # Type of FU issued
system.cpu0.iq.FU_type_0::SimdFloatMultAcc            0      0.00%     85.69% # Type of FU issued
system.cpu0.iq.FU_type_0::SimdFloatSqrt             0      0.00%     85.69% # Type of FU issued
system.cpu0.iq.FU_type_0::MemRead             5229040      7.29%     92.97% # Type of FU issued
system.cpu0.iq.FU_type_0::MemWrite            2630949      3.67%     96.64% # Type of FU issued
system.cpu0.iq.FU_type_0::FloatMemRead        2410001      3.36%    100.00% # Type of FU issued
system.cpu0.iq.FU_type_0::FloatMemWrite          1359      0.00%    100.00% # Type of FU issued
system.cpu0.iq.FU_type_0::IprAccess                 0      0.00%    100.00% # Type of FU issued
system.cpu0.iq.FU_type_0::InstPrefetch              0      0.00%    100.00% # Type of FU issued
system.cpu0.iq.FU_type_0::total              71775714                       # Type of FU issued
system.cpu0.iq.rate                          2.350629                       # Inst issue rate
system.cpu0.iq.fu_busy_cnt                    1570640                       # FU busy when requested
system.cpu0.iq.fu_busy_rate                  0.021883                       # FU busy rate (busy events/executed inst)
system.cpu0.iq.int_inst_queue_reads         161051555                       # Number of integer instruction queue reads
system.cpu0.iq.int_inst_queue_writes        119797850                       # Number of integer instruction queue writes
system.cpu0.iq.int_inst_queue_wakeup_accesses     60788624                       # Number of integer instruction queue wakeup accesses
system.cpu0.iq.fp_inst_queue_reads           15271133                       # Number of floating instruction queue reads
system.cpu0.iq.fp_inst_queue_writes          17884558                       # Number of floating instruction queue writes
system.cpu0.iq.fp_inst_queue_wakeup_accesses      6803698                       # Number of floating instruction queue wakeup accesses
system.cpu0.iq.vec_inst_queue_reads                 0                       # Number of vector instruction queue reads
system.cpu0.iq.vec_inst_queue_writes                0                       # Number of vector instruction queue writes
system.cpu0.iq.vec_inst_queue_wakeup_accesses            0                       # Number of vector instruction queue wakeup accesses
system.cpu0.iq.int_alu_accesses              63869223                       # Number of integer alu accesses
system.cpu0.iq.fp_alu_accesses                7644528                       # Number of floating point alu accesses
system.cpu0.iq.vec_alu_accesses                     0                       # Number of vector alu accesses
system.cpu0.iew.lsq.thread0.forwLoads          247470                       # Number of loads that had data forwarded from stores
system.cpu0.iew.lsq.thread0.invAddrLoads            0                       # Number of loads ignored due to an invalid address
system.cpu0.iew.lsq.thread0.squashedLoads      5700007                       # Number of loads squashed
system.cpu0.iew.lsq.thread0.ignoredResponses         3960                       # Number of memory responses ignored because the instruction is squashed
system.cpu0.iew.lsq.thread0.memOrderViolation          278                       # Number of memory ordering violations
system.cpu0.iew.lsq.thread0.squashedStores      1601749                       # Number of stores squashed
system.cpu0.iew.lsq.thread0.invAddrSwpfs            0                       # Number of software prefetches ignored due to an invalid address
system.cpu0.iew.lsq.thread0.blockedLoads            0                       # Number of blocked loads due to partial load-store forwarding
system.cpu0.iew.lsq.thread0.rescheduledLoads         3761                       # Number of loads that were rescheduled
system.cpu0.iew.lsq.thread0.cacheBlocked           20                       # Number of times an access to memory failed due to the cache being blocked
system.cpu0.iew.iewIdleCycles                       0                       # Number of cycles IEW is idle
system.cpu0.iew.iewSquashCycles               1354077                       # Number of cycles IEW is squashing
system.cpu0.iew.iewBlockCycles                6144676                       # Number of cycles IEW is blocking
system.cpu0.iew.iewUnblockCycles                 9525                       # Number of cycles IEW is unblocking
system.cpu0.iew.iewDispatchedInsts           90138561                       # Number of instructions dispatched to IQ
system.cpu0.iew.iewDispSquashedInsts            49425                       # Number of squashed instructions skipped by dispatch
system.cpu0.iew.iewDispLoadInsts              9517080                       # Number of dispatched load instructions
system.cpu0.iew.iewDispStoreInsts             3340290                       # Number of dispatched store instructions
system.cpu0.iew.iewDispNonSpecInsts             89979                       # Number of dispatched non-speculative instructions
system.cpu0.iew.iewIQFullEvents                  5163                       # Number of times the IQ has become full, causing a stall
system.cpu0.iew.iewLSQFullEvents                 2429                       # Number of times the LSQ has become full, causing a stall
system.cpu0.iew.memOrderViolationEvents           278                       # Number of memory order violations
system.cpu0.iew.predictedTakenIncorrect        411613                       # Number of branches that were predicted taken incorrectly
system.cpu0.iew.predictedNotTakenIncorrect      1290025                       # Number of branches that were predicted not taken incorrectly
system.cpu0.iew.branchMispredicts             1701638                       # Number of branch mispredicts detected at execute
system.cpu0.iew.iewExecutedInsts             68751679                       # Number of executed instructions
system.cpu0.iew.iewExecLoadInsts              6991705                       # Number of load instructions executed
system.cpu0.iew.iewExecSquashedInsts          3024029                       # Number of squashed instructions skipped in execute
system.cpu0.iew.exec_swp                            0                       # number of swp insts executed
system.cpu0.iew.exec_nop                            0                       # number of nop insts executed
system.cpu0.iew.exec_refs                     9416385                       # number of memory reference insts executed
system.cpu0.iew.exec_branches                 6331844                       # Number of branches executed
system.cpu0.iew.exec_stores                   2424680                       # Number of stores executed
system.cpu0.iew.exec_rate                    2.251593                       # Inst execution rate
system.cpu0.iew.wb_sent                      68134693                       # cumulative count of insts sent to commit
system.cpu0.iew.wb_count                     67592322                       # cumulative count of insts written-back
system.cpu0.iew.wb_producers                 50025752                       # num instructions producing a value
system.cpu0.iew.wb_consumers                 89172588                       # num instructions consuming a value
system.cpu0.iew.wb_rate                      2.213624                       # insts written-back per cycle
system.cpu0.iew.wb_fanout                    0.560999                       # average fanout of values written-back
system.cpu0.commit.commitSquashedInsts       47543626                       # The number of squashed insts skipped by commit
system.cpu0.commit.commitNonSpecStalls            109                       # The number of times commit has been forced to stall to communicate backwards
system.cpu0.commit.branchMispredicts          1353908                       # The number of times a branch was mispredicted
system.cpu0.commit.committed_per_cycle::samples     23331659                       # Number of insts commited each cycle
system.cpu0.commit.committed_per_cycle::mean     1.825624                       # Number of insts commited each cycle
system.cpu0.commit.committed_per_cycle::stdev     2.428668                       # Number of insts commited each cycle
system.cpu0.commit.committed_per_cycle::underflows            0      0.00%      0.00% # Number of insts commited each cycle
system.cpu0.commit.committed_per_cycle::0     10611422     45.48%     45.48% # Number of insts commited each cycle
system.cpu0.commit.committed_per_cycle::1      3072873     13.17%     58.65% # Number of insts commited each cycle
system.cpu0.commit.committed_per_cycle::2      3492223     14.97%     73.62% # Number of insts commited each cycle
system.cpu0.commit.committed_per_cycle::3      1898133      8.14%     81.75% # Number of insts commited each cycle
system.cpu0.commit.committed_per_cycle::4       968530      4.15%     85.91% # Number of insts commited each cycle
system.cpu0.commit.committed_per_cycle::5       788733      3.38%     89.29% # Number of insts commited each cycle
system.cpu0.commit.committed_per_cycle::6       324019      1.39%     90.67% # Number of insts commited each cycle
system.cpu0.commit.committed_per_cycle::7       324577      1.39%     92.07% # Number of insts commited each cycle
system.cpu0.commit.committed_per_cycle::8      1851149      7.93%    100.00% # Number of insts commited each cycle
system.cpu0.commit.committed_per_cycle::overflows            0      0.00%    100.00% # Number of insts commited each cycle
system.cpu0.commit.committed_per_cycle::min_value            0                       # Number of insts commited each cycle
system.cpu0.commit.committed_per_cycle::max_value            8                       # Number of insts commited each cycle
system.cpu0.commit.committed_per_cycle::total     23331659                       # Number of insts commited each cycle
system.cpu0.commit.committedInsts            19347174                       # Number of instructions committed
system.cpu0.commit.committedOps              42594848                       # Number of ops (including micro ops) committed
system.cpu0.commit.swp_count                        0                       # Number of s/w prefetches committed
system.cpu0.commit.refs                       5555603                       # Number of memory references committed
system.cpu0.commit.loads                      3817063                       # Number of loads committed
system.cpu0.commit.membars                         60                       # Number of memory barriers committed
system.cpu0.commit.branches                   4449564                       # Number of branches committed
system.cpu0.commit.vec_insts                        0                       # Number of committed Vector instructions.
system.cpu0.commit.fp_insts                   3197490                       # Number of committed floating point instructions.
system.cpu0.commit.int_insts                 39861375                       # Number of committed integer instructions.
system.cpu0.commit.function_calls              387144                       # Number of function calls committed.
system.cpu0.commit.op_class_0::No_OpClass       723737      1.70%      1.70% # Class of committed instruction
system.cpu0.commit.op_class_0::IntAlu        33851571     79.47%     81.17% # Class of committed instruction
system.cpu0.commit.op_class_0::IntMult            241      0.00%     81.17% # Class of committed instruction
system.cpu0.commit.op_class_0::IntDiv           51908      0.12%     81.29% # Class of committed instruction
system.cpu0.commit.op_class_0::FloatAdd       2411788      5.66%     86.96% # Class of committed instruction
system.cpu0.commit.op_class_0::FloatCmp             0      0.00%     86.96% # Class of committed instruction
system.cpu0.commit.op_class_0::FloatCvt             0      0.00%     86.96% # Class of committed instruction
system.cpu0.commit.op_class_0::FloatMult            0      0.00%     86.96% # Class of committed instruction
system.cpu0.commit.op_class_0::FloatMultAcc            0      0.00%     86.96% # Class of committed instruction
system.cpu0.commit.op_class_0::FloatDiv             0      0.00%     86.96% # Class of committed instruction
system.cpu0.commit.op_class_0::FloatMisc            0      0.00%     86.96% # Class of committed instruction
system.cpu0.commit.op_class_0::FloatSqrt            0      0.00%     86.96% # Class of committed instruction
system.cpu0.commit.op_class_0::SimdAdd              0      0.00%     86.96% # Class of committed instruction
system.cpu0.commit.op_class_0::SimdAddAcc            0      0.00%     86.96% # Class of committed instruction
system.cpu0.commit.op_class_0::SimdAlu              0      0.00%     86.96% # Class of committed instruction
system.cpu0.commit.op_class_0::SimdCmp              0      0.00%     86.96% # Class of committed instruction
system.cpu0.commit.op_class_0::SimdCvt              0      0.00%     86.96% # Class of committed instruction
system.cpu0.commit.op_class_0::SimdMisc             0      0.00%     86.96% # Class of committed instruction
system.cpu0.commit.op_class_0::SimdMult             0      0.00%     86.96% # Class of committed instruction
system.cpu0.commit.op_class_0::SimdMultAcc            0      0.00%     86.96% # Class of committed instruction
system.cpu0.commit.op_class_0::SimdShift            0      0.00%     86.96% # Class of committed instruction
system.cpu0.commit.op_class_0::SimdShiftAcc            0      0.00%     86.96% # Class of committed instruction
system.cpu0.commit.op_class_0::SimdSqrt             0      0.00%     86.96% # Class of committed instruction
system.cpu0.commit.op_class_0::SimdFloatAdd            0      0.00%     86.96% # Class of committed instruction
system.cpu0.commit.op_class_0::SimdFloatAlu            0      0.00%     86.96% # Class of committed instruction
system.cpu0.commit.op_class_0::SimdFloatCmp            0      0.00%     86.96% # Class of committed instruction
system.cpu0.commit.op_class_0::SimdFloatCvt            0      0.00%     86.96% # Class of committed instruction
system.cpu0.commit.op_class_0::SimdFloatDiv            0      0.00%     86.96% # Class of committed instruction
system.cpu0.commit.op_class_0::SimdFloatMisc            0      0.00%     86.96% # Class of committed instruction
system.cpu0.commit.op_class_0::SimdFloatMult            0      0.00%     86.96% # Class of committed instruction
system.cpu0.commit.op_class_0::SimdFloatMultAcc            0      0.00%     86.96% # Class of committed instruction
system.cpu0.commit.op_class_0::SimdFloatSqrt            0      0.00%     86.96% # Class of committed instruction
system.cpu0.commit.op_class_0::MemRead        3043051      7.14%     94.10% # Class of committed instruction
system.cpu0.commit.op_class_0::MemWrite       1738540      4.08%     98.18% # Class of committed instruction
system.cpu0.commit.op_class_0::FloatMemRead       774012      1.82%    100.00% # Class of committed instruction
system.cpu0.commit.op_class_0::FloatMemWrite            0      0.00%    100.00% # Class of committed instruction
system.cpu0.commit.op_class_0::IprAccess            0      0.00%    100.00% # Class of committed instruction
system.cpu0.commit.op_class_0::InstPrefetch            0      0.00%    100.00% # Class of committed instruction
system.cpu0.commit.op_class_0::total         42594848                       # Class of committed instruction
system.cpu0.commit.bw_lim_events              1851149                       # number cycles where commit BW limit reached
system.cpu0.rob.rob_reads                   111618984                       # The number of ROB reads
system.cpu0.rob.rob_writes                  187608458                       # The number of ROB writes
system.cpu0.timesIdled                            713                       # Number of times that the entire CPU went into an idle state and unscheduled itself
system.cpu0.idleCycles                           3548                       # Total number of cycles that the CPU has spent unscheduled due to idling
system.cpu0.committedInsts                   19347174                       # Number of Instructions Simulated
system.cpu0.committedOps                     42594848                       # Number of Ops (including micro ops) Simulated
system.cpu0.cpi                              1.578251                       # CPI: Cycles Per Instruction
system.cpu0.cpi_total                        1.578251                       # CPI: Total CPI of All Threads
system.cpu0.ipc                              0.633613                       # IPC: Instructions Per Cycle
system.cpu0.ipc_total                        0.633613                       # IPC: Total IPC of All Threads
system.cpu0.int_regfile_reads                88261181                       # number of integer regfile reads
system.cpu0.int_regfile_writes               51936782                       # number of integer regfile writes
system.cpu0.fp_regfile_reads                 10778601                       # number of floating regfile reads
system.cpu0.fp_regfile_writes                 6396943                       # number of floating regfile writes
system.cpu0.cc_regfile_reads                 36721688                       # number of cc regfile reads
system.cpu0.cc_regfile_writes                18111811                       # number of cc regfile writes
system.cpu0.misc_regfile_reads               22333548                       # number of misc regfile reads
system.cpu0.dcache.tags.pwrStateResidencyTicks::UNDEFINED  15267344125                       # Cumulative time (in ticks) in various power states
system.cpu0.dcache.tags.replacements            20695                       # number of replacements
system.cpu0.dcache.tags.tagsinuse                 512                       # Cycle average of tags in use
system.cpu0.dcache.tags.total_refs             503133                       # Total number of references to valid blocks.
system.cpu0.dcache.tags.sampled_refs            20695                       # Sample count of references to valid blocks.
system.cpu0.dcache.tags.avg_refs            24.311814                       # Average number of references to valid blocks.
system.cpu0.dcache.tags.warmup_cycle                0                       # Cycle when the warmup percentage was hit.
system.cpu0.dcache.tags.occ_blocks::cpu0.data          512                       # Average occupied blocks per requestor
system.cpu0.dcache.tags.occ_percent::cpu0.data            1                       # Average percentage of cache occupancy
system.cpu0.dcache.tags.occ_percent::total            1                       # Average percentage of cache occupancy
system.cpu0.dcache.tags.occ_task_id_blocks::1024          512                       # Occupied blocks per task id
system.cpu0.dcache.tags.age_task_id_blocks_1024::0           18                       # Occupied blocks per task id
system.cpu0.dcache.tags.age_task_id_blocks_1024::1          128                       # Occupied blocks per task id
system.cpu0.dcache.tags.age_task_id_blocks_1024::2          310                       # Occupied blocks per task id
system.cpu0.dcache.tags.age_task_id_blocks_1024::3            5                       # Occupied blocks per task id
system.cpu0.dcache.tags.age_task_id_blocks_1024::4           51                       # Occupied blocks per task id
system.cpu0.dcache.tags.occ_task_id_percent::1024            1                       # Percentage of cache occupancy per task id
system.cpu0.dcache.tags.tag_accesses         33780615                       # Number of tag accesses
system.cpu0.dcache.tags.data_accesses        33780615                       # Number of data accesses
system.cpu0.dcache.pwrStateResidencyTicks::UNDEFINED  15267344125                       # Cumulative time (in ticks) in various power states
system.cpu0.dcache.ReadReq_hits::cpu0.data      6677041                       # number of ReadReq hits
system.cpu0.dcache.ReadReq_hits::total        6677041                       # number of ReadReq hits
system.cpu0.dcache.WriteReq_hits::cpu0.data      1727644                       # number of WriteReq hits
system.cpu0.dcache.WriteReq_hits::total       1727644                       # number of WriteReq hits
system.cpu0.dcache.demand_hits::cpu0.data      8404685                       # number of demand (read+write) hits
system.cpu0.dcache.demand_hits::total         8404685                       # number of demand (read+write) hits
system.cpu0.dcache.overall_hits::cpu0.data      8404685                       # number of overall hits
system.cpu0.dcache.overall_hits::total        8404685                       # number of overall hits
system.cpu0.dcache.ReadReq_misses::cpu0.data        24249                       # number of ReadReq misses
system.cpu0.dcache.ReadReq_misses::total        24249                       # number of ReadReq misses
system.cpu0.dcache.WriteReq_misses::cpu0.data        11046                       # number of WriteReq misses
system.cpu0.dcache.WriteReq_misses::total        11046                       # number of WriteReq misses
system.cpu0.dcache.demand_misses::cpu0.data        35295                       # number of demand (read+write) misses
system.cpu0.dcache.demand_misses::total         35295                       # number of demand (read+write) misses
system.cpu0.dcache.overall_misses::cpu0.data        35295                       # number of overall misses
system.cpu0.dcache.overall_misses::total        35295                       # number of overall misses
system.cpu0.dcache.ReadReq_miss_latency::cpu0.data   1323322500                       # number of ReadReq miss cycles
system.cpu0.dcache.ReadReq_miss_latency::total   1323322500                       # number of ReadReq miss cycles
system.cpu0.dcache.WriteReq_miss_latency::cpu0.data   1001821000                       # number of WriteReq miss cycles
system.cpu0.dcache.WriteReq_miss_latency::total   1001821000                       # number of WriteReq miss cycles
system.cpu0.dcache.demand_miss_latency::cpu0.data   2325143500                       # number of demand (read+write) miss cycles
system.cpu0.dcache.demand_miss_latency::total   2325143500                       # number of demand (read+write) miss cycles
system.cpu0.dcache.overall_miss_latency::cpu0.data   2325143500                       # number of overall miss cycles
system.cpu0.dcache.overall_miss_latency::total   2325143500                       # number of overall miss cycles
system.cpu0.dcache.ReadReq_accesses::cpu0.data      6701290                       # number of ReadReq accesses(hits+misses)
system.cpu0.dcache.ReadReq_accesses::total      6701290                       # number of ReadReq accesses(hits+misses)
system.cpu0.dcache.WriteReq_accesses::cpu0.data      1738690                       # number of WriteReq accesses(hits+misses)
system.cpu0.dcache.WriteReq_accesses::total      1738690                       # number of WriteReq accesses(hits+misses)
system.cpu0.dcache.demand_accesses::cpu0.data      8439980                       # number of demand (read+write) accesses
system.cpu0.dcache.demand_accesses::total      8439980                       # number of demand (read+write) accesses
system.cpu0.dcache.overall_accesses::cpu0.data      8439980                       # number of overall (read+write) accesses
system.cpu0.dcache.overall_accesses::total      8439980                       # number of overall (read+write) accesses
[...]
system.l2.overall_miss_rate::cpu0.inst       0.003100                       # miss rate for overall accesses
system.l2.overall_miss_rate::cpu0.data       0.802290                       # miss rate for overall accesses
system.l2.overall_miss_rate::total           0.713678                       # miss rate for overall accesses
system.l2.ReadExReq_avg_miss_latency::cpu0.data 91063.829787                       # average ReadExReq miss latency
system.l2.ReadExReq_avg_miss_latency::total 91063.829787                       # average ReadExReq miss latency
system.l2.ReadCleanReq_avg_miss_latency::cpu0.inst       100250                       # average ReadCleanReq miss latency
system.l2.ReadCleanReq_avg_miss_latency::total       100250                       # average ReadCleanReq miss latency
system.l2.ReadSharedReq_avg_miss_latency::cpu0.data 104620.980331                       # average ReadSharedReq miss latency
system.l2.ReadSharedReq_avg_miss_latency::total 104620.980331                       # average ReadSharedReq miss latency
system.l2.demand_avg_miss_latency::cpu0.inst       100250                       # average overall miss latency
system.l2.demand_avg_miss_latency::cpu0.data 96294.007829                       # average overall miss latency
system.l2.demand_avg_miss_latency::total 96295.912839                       # average overall miss latency
system.l2.overall_avg_miss_latency::cpu0.inst       100250                       # average overall miss latency
system.l2.overall_avg_miss_latency::cpu0.data 96294.007829                       # average overall miss latency
system.l2.overall_avg_miss_latency::total 96295.912839                       # average overall miss latency
system.l2.blocked_cycles::no_mshrs                  0                       # number of cycles access was blocked
system.l2.blocked_cycles::no_targets                0                       # number of cycles access was blocked
system.l2.blocked::no_mshrs                         0                       # number of cycles access was blocked
system.l2.blocked::no_targets                       0                       # number of cycles access was blocked
system.l2.avg_blocked_cycles::no_mshrs            nan                       # average number of cycles each access was blocked
system.l2.avg_blocked_cycles::no_targets          nan                       # average number of cycles each access was blocked
system.l2.writebacks::writebacks                16097                       # number of writebacks
system.l2.writebacks::total                     16097                       # number of writebacks
system.l2.ReadExReq_mshr_misses::cpu0.data        10199                       # number of ReadExReq MSHR misses
system.l2.ReadExReq_mshr_misses::total          10199                       # number of ReadExReq MSHR misses
system.l2.ReadCleanReq_mshr_misses::cpu0.inst            8                       # number of ReadCleanReq MSHR misses
system.l2.ReadCleanReq_mshr_misses::total            8                       # number of ReadCleanReq MSHR misses
system.l2.ReadSharedReq_mshr_misses::cpu0.data         6406                       # number of ReadSharedReq MSHR misses
system.l2.ReadSharedReq_mshr_misses::total         6406                       # number of ReadSharedReq MSHR misses
system.l2.demand_mshr_misses::cpu0.inst             8                       # number of demand (read+write) MSHR misses
system.l2.demand_mshr_misses::cpu0.data         16605                       # number of demand (read+write) MSHR misses
system.l2.demand_mshr_misses::total             16613                       # number of demand (read+write) MSHR misses
system.l2.overall_mshr_misses::cpu0.inst            8                       # number of overall MSHR misses
system.l2.overall_mshr_misses::cpu0.data        16605                       # number of overall MSHR misses
system.l2.overall_mshr_misses::total            16613                       # number of overall MSHR misses
system.l2.ReadExReq_mshr_miss_latency::cpu0.data    826770000                       # number of ReadExReq MSHR miss cycles
system.l2.ReadExReq_mshr_miss_latency::total    826770000                       # number of ReadExReq MSHR miss cycles
system.l2.ReadCleanReq_mshr_miss_latency::cpu0.inst       722000                       # number of ReadCleanReq MSHR miss cycles
system.l2.ReadCleanReq_mshr_miss_latency::total       722000                       # number of ReadCleanReq MSHR miss cycles
system.l2.ReadSharedReq_mshr_miss_latency::cpu0.data    606162000                       # number of ReadSharedReq MSHR miss cycles
system.l2.ReadSharedReq_mshr_miss_latency::total    606162000                       # number of ReadSharedReq MSHR miss cycles
system.l2.demand_mshr_miss_latency::cpu0.inst       722000                       # number of demand (read+write) MSHR miss cycles
system.l2.demand_mshr_miss_latency::cpu0.data   1432932000                       # number of demand (read+write) MSHR miss cycles
system.l2.demand_mshr_miss_latency::total   1433654000                       # number of demand (read+write) MSHR miss cycles
system.l2.overall_mshr_miss_latency::cpu0.inst       722000                       # number of overall MSHR miss cycles
system.l2.overall_mshr_miss_latency::cpu0.data   1432932000                       # number of overall MSHR miss cycles
system.l2.overall_mshr_miss_latency::total   1433654000                       # number of overall MSHR miss cycles
system.l2.ReadExReq_mshr_miss_rate::cpu0.data     0.970409                       # mshr miss rate for ReadExReq accesses
system.l2.ReadExReq_mshr_miss_rate::total     0.970409                       # mshr miss rate for ReadExReq accesses
system.l2.ReadCleanReq_mshr_miss_rate::cpu0.inst     0.003100                       # mshr miss rate for ReadCleanReq accesses
system.l2.ReadCleanReq_mshr_miss_rate::total     0.003100                       # mshr miss rate for ReadCleanReq accesses
system.l2.ReadSharedReq_mshr_miss_rate::cpu0.data     0.628841                       # mshr miss rate for ReadSharedReq accesses
system.l2.ReadSharedReq_mshr_miss_rate::total     0.628841                       # mshr miss rate for ReadSharedReq accesses
system.l2.demand_mshr_miss_rate::cpu0.inst     0.003100                       # mshr miss rate for demand accesses
system.l2.demand_mshr_miss_rate::cpu0.data     0.802290                       # mshr miss rate for demand accesses
system.l2.demand_mshr_miss_rate::total       0.713678                       # mshr miss rate for demand accesses
system.l2.overall_mshr_miss_rate::cpu0.inst     0.003100                       # mshr miss rate for overall accesses
system.l2.overall_mshr_miss_rate::cpu0.data     0.802290                       # mshr miss rate for overall accesses
system.l2.overall_mshr_miss_rate::total      0.713678                       # mshr miss rate for overall accesses
system.l2.ReadExReq_avg_mshr_miss_latency::cpu0.data 81063.829787                       # average ReadExReq mshr miss latency
system.l2.ReadExReq_avg_mshr_miss_latency::total 81063.829787                       # average ReadExReq mshr miss latency
system.l2.ReadCleanReq_avg_mshr_miss_latency::cpu0.inst        90250                       # average ReadCleanReq mshr miss latency
system.l2.ReadCleanReq_avg_mshr_miss_latency::total        90250                       # average ReadCleanReq mshr miss latency
system.l2.ReadSharedReq_avg_mshr_miss_latency::cpu0.data 94624.102404                       # average ReadSharedReq mshr miss latency
system.l2.ReadSharedReq_avg_mshr_miss_latency::total 94624.102404                       # average ReadSharedReq mshr miss latency
system.l2.demand_avg_mshr_miss_latency::cpu0.inst        90250                       # average overall mshr miss latency
system.l2.demand_avg_mshr_miss_latency::cpu0.data 86295.212285                       # average overall mshr miss latency
system.l2.demand_avg_mshr_miss_latency::total 86297.116716                       # average overall mshr miss latency
system.l2.overall_avg_mshr_miss_latency::cpu0.inst        90250                       # average overall mshr miss latency
system.l2.overall_avg_mshr_miss_latency::cpu0.data 86295.212285                       # average overall mshr miss latency
system.l2.overall_avg_mshr_miss_latency::total 86297.116716                       # average overall mshr miss latency
system.membus.snoop_filter.tot_requests         33233                       # Total number of requests made to the snoop filter.
system.membus.snoop_filter.hit_single_requests        16620                       # Number of requests hitting in the snoop filter with a single holder of the requested data.
system.membus.snoop_filter.hit_multi_requests            0                       # Number of requests hitting in the snoop filter with multiple (>1) holders of the requested data.
system.membus.snoop_filter.tot_snoops               0                       # Total number of snoops made to the snoop filter.
system.membus.snoop_filter.hit_single_snoops            0                       # Number of snoops hitting in the snoop filter with a single holder of the requested data.
system.membus.snoop_filter.hit_multi_snoops            0                       # Number of snoops hitting in the snoop filter with multiple (>1) holders of the requested data.
system.membus.pwrStateResidencyTicks::UNDEFINED  15267344125                       # Cumulative time (in ticks) in various power states
system.membus.trans_dist::ReadResp               6412                       # Transaction distribution
system.membus.trans_dist::WritebackDirty        16097                       # Transaction distribution
system.membus.trans_dist::CleanEvict              523                       # Transaction distribution
system.membus.trans_dist::ReadExReq             10199                       # Transaction distribution
system.membus.trans_dist::ReadExResp            10199                       # Transaction distribution
system.membus.trans_dist::ReadSharedReq          6414                       # Transaction distribution
system.membus.pkt_count_system.l2.mem_side::system.mem_ctrls.port        49844                       # Packet count per connected master and slave (bytes)
system.membus.pkt_count_system.l2.mem_side::total        49844                       # Packet count per connected master and slave (bytes)
system.membus.pkt_count::total                  49844                       # Packet count per connected master and slave (bytes)
system.membus.pkt_size_system.l2.mem_side::system.mem_ctrls.port      2093312                       # Cumulative packet size per connected master and slave (bytes)
system.membus.pkt_size_system.l2.mem_side::total      2093312                       # Cumulative packet size per connected master and slave (bytes)
system.membus.pkt_size::total                 2093312                       # Cumulative packet size per connected master and slave (bytes)
system.membus.snoops                                0                       # Total snoops (count)
system.membus.snoopTraffic                          0                       # Total snoop traffic (bytes)
system.membus.snoop_fanout::samples             16613                       # Request fanout histogram
system.membus.snoop_fanout::mean                    0                       # Request fanout histogram
system.membus.snoop_fanout::stdev                   0                       # Request fanout histogram
system.membus.snoop_fanout::underflows              0      0.00%      0.00% # Request fanout histogram
system.membus.snoop_fanout::0                   16613    100.00%    100.00% # Request fanout histogram
system.membus.snoop_fanout::1                       0      0.00%    100.00% # Request fanout histogram
system.membus.snoop_fanout::overflows               0      0.00%    100.00% # Request fanout histogram
system.membus.snoop_fanout::min_value               0                       # Request fanout histogram
system.membus.snoop_fanout::max_value               0                       # Request fanout histogram
system.membus.snoop_fanout::total               16613                       # Request fanout histogram
system.membus.reqLayer12.occupancy          101561500                       # Layer occupancy (ticks)
system.membus.reqLayer12.utilization              0.7                       # Layer utilization (%)
system.membus.respLayer1.occupancy           90099750                       # Layer occupancy (ticks)
system.membus.respLayer1.utilization              0.6                       # Layer utilization (%)
system.tol2bus.snoop_filter.tot_requests        46620                       # Total number of requests made to the snoop filter.
system.tol2bus.snoop_filter.hit_single_requests        23294                       # Number of requests hitting in the snoop filter with a single holder of the requested data.
system.tol2bus.snoop_filter.hit_multi_requests           73                       # Number of requests hitting in the snoop filter with multiple (>1) holders of the requested data.
system.tol2bus.snoop_filter.tot_snoops              1                       # Total number of snoops made to the snoop filter.
system.tol2bus.snoop_filter.hit_single_snoops            1                       # Number of snoops hitting in the snoop filter with a single holder of the requested data.
system.tol2bus.snoop_filter.hit_multi_snoops            0                       # Number of snoops hitting in the snoop filter with multiple (>1) holders of the requested data.
system.tol2bus.pwrStateResidencyTicks::UNDEFINED  15267344125                       # Cumulative time (in ticks) in various power states
system.tol2bus.trans_dist::ReadResp             12798                       # Transaction distribution
system.tol2bus.trans_dist::WritebackDirty        34353                       # Transaction distribution
system.tol2bus.trans_dist::WritebackClean         2597                       # Transaction distribution
system.tol2bus.trans_dist::CleanEvict            2963                       # Transaction distribution
system.tol2bus.trans_dist::UpgradeReq              18                       # Transaction distribution
system.tol2bus.trans_dist::UpgradeResp             18                       # Transaction distribution
system.tol2bus.trans_dist::ReadExReq            10510                       # Transaction distribution
system.tol2bus.trans_dist::ReadExResp           10510                       # Transaction distribution
system.tol2bus.trans_dist::ReadCleanReq          2613                       # Transaction distribution
system.tol2bus.trans_dist::ReadSharedReq        10187                       # Transaction distribution
system.tol2bus.pkt_count_system.cpu0.icache.mem_side::system.l2.cpu_side         7791                       # Packet count per connected master and slave (bytes)
system.tol2bus.pkt_count_system.cpu0.dcache.mem_side::system.l2.cpu_side        62123                       # Packet count per connected master and slave (bytes)
system.tol2bus.pkt_count::total                 69914                       # Packet count per connected master and slave (bytes)
system.tol2bus.pkt_size_system.cpu0.icache.mem_side::system.l2.cpu_side       331392                       # Cumulative packet size per connected master and slave (bytes)
system.tol2bus.pkt_size_system.cpu0.dcache.mem_side::system.l2.cpu_side      2492864                       # Cumulative packet size per connected master and slave (bytes)
system.tol2bus.pkt_size::total                2824256                       # Cumulative packet size per connected master and slave (bytes)
system.tol2bus.snoops                           16653                       # Total snoops (count)
system.tol2bus.snoopTraffic                   1032256                       # Total snoop traffic (bytes)
system.tol2bus.snoop_fanout::samples            39949                       # Request fanout histogram
system.tol2bus.snoop_fanout::mean            0.001852                       # Request fanout histogram
system.tol2bus.snoop_fanout::stdev           0.043000                       # Request fanout histogram
system.tol2bus.snoop_fanout::underflows             0      0.00%      0.00% # Request fanout histogram
system.tol2bus.snoop_fanout::0                  39875     99.81%     99.81% # Request fanout histogram
system.tol2bus.snoop_fanout::1                     74      0.19%    100.00% # Request fanout histogram
system.tol2bus.snoop_fanout::2                      0      0.00%    100.00% # Request fanout histogram
system.tol2bus.snoop_fanout::3                      0      0.00%    100.00% # Request fanout histogram
system.tol2bus.snoop_fanout::4                      0      0.00%    100.00% # Request fanout histogram
system.tol2bus.snoop_fanout::5                      0      0.00%    100.00% # Request fanout histogram
system.tol2bus.snoop_fanout::6                      0      0.00%    100.00% # Request fanout histogram
system.tol2bus.snoop_fanout::7                      0      0.00%    100.00% # Request fanout histogram
system.tol2bus.snoop_fanout::8                      0      0.00%    100.00% # Request fanout histogram
system.tol2bus.snoop_fanout::9                      0      0.00%    100.00% # Request fanout histogram
system.tol2bus.snoop_fanout::10                     0      0.00%    100.00% # Request fanout histogram
system.tol2bus.snoop_fanout::11                     0      0.00%    100.00% # Request fanout histogram
system.tol2bus.snoop_fanout::12                     0      0.00%    100.00% # Request fanout histogram
system.tol2bus.snoop_fanout::13                     0      0.00%    100.00% # Request fanout histogram
system.tol2bus.snoop_fanout::14                     0      0.00%    100.00% # Request fanout histogram
system.tol2bus.snoop_fanout::15                     0      0.00%    100.00% # Request fanout histogram
system.tol2bus.snoop_fanout::16                     0      0.00%    100.00% # Request fanout histogram
system.tol2bus.snoop_fanout::17                     0      0.00%    100.00% # Request fanout histogram
system.tol2bus.snoop_fanout::18                     0      0.00%    100.00% # Request fanout histogram
system.tol2bus.snoop_fanout::19                     0      0.00%    100.00% # Request fanout histogram
system.tol2bus.snoop_fanout::20                     0      0.00%    100.00% # Request fanout histogram
system.tol2bus.snoop_fanout::21                     0      0.00%    100.00% # Request fanout histogram
system.tol2bus.snoop_fanout::22                     0      0.00%    100.00% # Request fanout histogram
system.tol2bus.snoop_fanout::23                     0      0.00%    100.00% # Request fanout histogram
system.tol2bus.snoop_fanout::24                     0      0.00%    100.00% # Request fanout histogram
system.tol2bus.snoop_fanout::overflows              0      0.00%    100.00% # Request fanout histogram
system.tol2bus.snoop_fanout::min_value              0                       # Request fanout histogram
system.tol2bus.snoop_fanout::max_value              1                       # Request fanout histogram
system.tol2bus.snoop_fanout::total              39949                       # Request fanout histogram
system.tol2bus.reqLayer0.occupancy           44163000                       # Layer occupancy (ticks)
system.tol2bus.reqLayer0.utilization              0.3                       # Layer utilization (%)
system.tol2bus.respLayer0.occupancy           3919500                       # Layer occupancy (ticks)
system.tol2bus.respLayer0.utilization             0.0                       # Layer utilization (%)
system.tol2bus.respLayer1.occupancy          31051500                       # Layer occupancy (ticks)
system.tol2bus.respLayer1.utilization             0.2                       # Layer utilization (%)

---------- End Simulation Statistics   ----------
