
---------- Begin Simulation Statistics ----------
sim_seconds                                  0.015267                       # Number of seconds simulated
sim_ticks                                 15267344125                       # Number of ticks simulated
final_tick                               488555012000                       # Number of ticks from beginning of simulation (restored from checkpoints and never reset)
sim_freq                                 1000000000000                       # Frequency of simulated ticks
host_inst_rate                                3281219                       # Simulator instruction rate (inst/s)
host_op_rate                                  6199264                       # Simulator op (including micro ops) rate (op/s)
host_tick_rate                               46454886                       # Simulator tick rate (ticks/s)
host_mem_usage                                3398656                       # Number of bytes of host memory used
host_seconds                                   328.65                       # Real time elapsed on the host
sim_insts                                  1078368794                       # Number of instructions simulated
sim_ops                                    2037380769                       # Number of ops (including micro ops) simulated
system.voltage_domain.voltage                       1                       # Voltage in Volts
system.clk_domain.clock                          1000                       # Clock period in ticks
system.mem_ctrls.pwrStateResidencyTicks::UNDEFINED  15267344125                       # Cumulative time (in ticks) in various power states
system.mem_ctrls.bytes_read::cpu0.data         220800                       # Number of bytes read from this memory
system.mem_ctrls.bytes_read::total             220800                       # Number of bytes read from this memory
system.mem_ctrls.bytes_written::writebacks        77248                       # Number of bytes written to this memory
system.mem_ctrls.bytes_written::total           77248                       # Number of bytes written to this memory
system.mem_ctrls.num_reads::cpu0.data            3450                       # Number of read requests responded to by this memory
system.mem_ctrls.num_reads::total                3450                       # Number of read requests responded to by this memory
system.mem_ctrls.num_writes::writebacks          1207                       # Number of write requests responded to by this memory
system.mem_ctrls.num_writes::total               1207                       # Number of write requests responded to by this memory
system.mem_ctrls.bw_read::cpu0.data          14462240                       # Total read bandwidth from this memory (bytes/s)
system.mem_ctrls.bw_read::total              14462240                       # Total read bandwidth from this memory (bytes/s)
system.mem_ctrls.bw_write::writebacks         5059688                       # Write bandwidth from this memory (bytes/s)
system.mem_ctrls.bw_write::total              5059688                       # Write bandwidth from this memory (bytes/s)
system.mem_ctrls.bw_total::writebacks         5059688                       # Total bandwidth to/from this memory (bytes/s)
system.mem_ctrls.bw_total::cpu0.data         14462240                       # Total bandwidth to/from this memory (bytes/s)
system.mem_ctrls.bw_total::total             19521928                       # Total bandwidth to/from this memory (bytes/s)
system.mem_ctrls.readReqs                        3450                       # Number of read requests accepted
system.mem_ctrls.writeReqs                       1207                       # Number of write requests accepted
system.mem_ctrls.readBursts                      3450                       # Number of DRAM read bursts, including those serviced by the write queue
system.mem_ctrls.writeBursts                     1207                       # Number of DRAM write bursts, including those merged in the write queue
system.mem_ctrls.bytesReadDRAM                 220800                       # Total number of bytes read from DRAM
system.mem_ctrls.bytesReadWrQ                       0                       # Total number of bytes read from write queue
system.mem_ctrls.bytesWritten                   77952                       # Total number of bytes written to DRAM
system.mem_ctrls.bytesReadSys                  220800                       # Total read bytes from the system interface side
system.mem_ctrls.bytesWrittenSys                77248                       # Total written bytes from the system interface side
system.mem_ctrls.servicedByWrQ                      0                       # Number of DRAM read bursts serviced by the write queue
system.mem_ctrls.mergedWrBursts                     0                       # Number of DRAM write bursts merged with an existing one
system.mem_ctrls.neitherReadNorWriteReqs            0                       # Number of requests that are neither read nor write
system.mem_ctrls.perBankRdBursts::0               256                       # Per bank write bursts
system.mem_ctrls.perBankRdBursts::1               256                       # Per bank write bursts
system.mem_ctrls.perBankRdBursts::2               256                       # Per bank write bursts
system.mem_ctrls.perBankRdBursts::3               256                       # Per bank write bursts
system.mem_ctrls.perBankRdBursts::4               356                       # Per bank write bursts
system.mem_ctrls.perBankRdBursts::5               384                       # Per bank write bursts
system.mem_ctrls.perBankRdBursts::6               378                       # Per bank write bursts
system.mem_ctrls.perBankRdBursts::7               256                       # Per bank write bursts
system.mem_ctrls.perBankRdBursts::8               171                       # Per bank write bursts
system.mem_ctrls.perBankRdBursts::9               128                       # Per bank write bursts
system.mem_ctrls.perBankRdBursts::10              128                       # Per bank write bursts
system.mem_ctrls.perBankRdBursts::11              128                       # Per bank write bursts
system.mem_ctrls.perBankRdBursts::12              128                       # Per bank write bursts
system.mem_ctrls.perBankRdBursts::13              128                       # Per bank write bursts
system.mem_ctrls.perBankRdBursts::14              108                       # Per bank write bursts
system.mem_ctrls.perBankRdBursts::15              133                       # Per bank write bursts
system.mem_ctrls.perBankWrBursts::0               128                       # Per bank write bursts
system.mem_ctrls.perBankWrBursts::1               128                       # Per bank write bursts
system.mem_ctrls.perBankWrBursts::2               127                       # Per bank write bursts
system.mem_ctrls.perBankWrBursts::3               128                       # Per bank write bursts
system.mem_ctrls.perBankWrBursts::4               129                       # Per bank write bursts
system.mem_ctrls.perBankWrBursts::5               159                       # Per bank write bursts
system.mem_ctrls.perBankWrBursts::6               128                       # Per bank write bursts
system.mem_ctrls.perBankWrBursts::7               127                       # Per bank write bursts
system.mem_ctrls.perBankWrBursts::8                23                       # Per bank write bursts
system.mem_ctrls.perBankWrBursts::9                 0                       # Per bank write bursts
system.mem_ctrls.perBankWrBursts::10                6                       # Per bank write bursts
system.mem_ctrls.perBankWrBursts::11                3                       # Per bank write bursts
system.mem_ctrls.perBankWrBursts::12                0                       # Per bank write bursts
system.mem_ctrls.perBankWrBursts::13                0                       # Per bank write bursts
system.mem_ctrls.perBankWrBursts::14                7                       # Per bank write bursts
system.mem_ctrls.perBankWrBursts::15              125                       # Per bank write bursts
system.mem_ctrls.numRdRetry                         0                       # Number of times read queue was full causing retry
system.mem_ctrls.numWrRetry                         0                       # Number of times write queue was full causing retry
system.mem_ctrls.totGap                   15267407500                       # Total gap between requests
system.mem_ctrls.readPktSize::0                     0                       # Read request sizes (log2)
system.mem_ctrls.readPktSize::1                     0                       # Read request sizes (log2)
system.mem_ctrls.readPktSize::2                     0                       # Read request sizes (log2)
system.mem_ctrls.readPktSize::3                     0                       # Read request sizes (log2)
system.mem_ctrls.readPktSize::4                     0                       # Read request sizes (log2)
system.mem_ctrls.readPktSize::5                     0                       # Read request sizes (log2)
system.mem_ctrls.readPktSize::6                  3450                       # Read request sizes (log2)
system.mem_ctrls.writePktSize::0                    0                       # Write request sizes (log2)
system.mem_ctrls.writePktSize::1                    0                       # Write request sizes (log2)
system.mem_ctrls.writePktSize::2                    0                       # Write request sizes (log2)
system.mem_ctrls.writePktSize::3                    0                       # Write request sizes (log2)
system.mem_ctrls.writePktSize::4                    0                       # Write request sizes (log2)
system.mem_ctrls.writePktSize::5                    0                       # Write request sizes (log2)
system.mem_ctrls.writePktSize::6                 1207                       # Write request sizes (log2)
system.mem_ctrls.rdQLenPdf::0                    3449                       # What read queue length does an incoming req see
system.mem_ctrls.rdQLenPdf::1                       1                       # What read queue length does an incoming req see
system.mem_ctrls.rdQLenPdf::2                       0                       # What read queue length does an incoming req see
system.mem_ctrls.rdQLenPdf::3                       0                       # What read queue length does an incoming req see
system.mem_ctrls.rdQLenPdf::4                       0                       # What read queue length does an incoming req see
system.mem_ctrls.rdQLenPdf::5                       0                       # What read queue length does an incoming req see
system.mem_ctrls.rdQLenPdf::6                       0                       # What read queue length does an incoming req see
system.mem_ctrls.rdQLenPdf::7                       0                       # What read queue length does an incoming req see
system.mem_ctrls.rdQLenPdf::8                       0                       # What read queue length does an incoming req see
system.mem_ctrls.rdQLenPdf::9                       0                       # What read queue length does an incoming req see
system.mem_ctrls.rdQLenPdf::10                      0                       # What read queue length does an incoming req see
system.mem_ctrls.rdQLenPdf::11                      0                       # What read queue length does an incoming req see
system.mem_ctrls.rdQLenPdf::12                      0                       # What read queue length does an incoming req see
system.mem_ctrls.rdQLenPdf::13                      0                       # What read queue length does an incoming req see
system.mem_ctrls.rdQLenPdf::14                      0                       # What read queue length does an incoming req see
system.mem_ctrls.rdQLenPdf::15                      0                       # What read queue length does an incoming req see
system.mem_ctrls.rdQLenPdf::16                      0                       # What read queue length does an incoming req see
system.mem_ctrls.rdQLenPdf::17                      0                       # What read queue length does an incoming req see
system.mem_ctrls.rdQLenPdf::18                      0                       # What read queue length does an incoming req see
system.mem_ctrls.rdQLenPdf::19                      0                       # What read queue length does an incoming req see
system.mem_ctrls.rdQLenPdf::20                      0                       # What read queue length does an incoming req see
system.mem_ctrls.rdQLenPdf::21                      0                       # What read queue length does an incoming req see
system.mem_ctrls.rdQLenPdf::22                      0                       # What read queue length does an incoming req see
system.mem_ctrls.rdQLenPdf::23                      0                       # What read queue length does an incoming req see
system.mem_ctrls.rdQLenPdf::24                      0                       # What read queue length does an incoming req see
system.mem_ctrls.rdQLenPdf::25                      0                       # What read queue length does an incoming req see
system.mem_ctrls.rdQLenPdf::26                      0                       # What read queue length does an incoming req see
system.mem_ctrls.rdQLenPdf::27                      0                       # What read queue length does an incoming req see
system.mem_ctrls.rdQLenPdf::28                      0                       # What read queue length does an incoming req see
system.mem_ctrls.rdQLenPdf::29                      0                       # What read queue length does an incoming req see
system.mem_ctrls.rdQLenPdf::30                      0                       # What read queue length does an incoming req see
system.mem_ctrls.rdQLenPdf::31                      0                       # What read queue length does an incoming req see
system.mem_ctrls.wrQLenPdf::0                       0                       # What write queue length does an incoming req see
system.mem_ctrls.wrQLenPdf::1                       0                       # What write queue length does an incoming req see
system.mem_ctrls.wrQLenPdf::2                       0                       # What write queue length does an incoming req see
system.mem_ctrls.wrQLenPdf::3                       0                       # What write queue length does an incoming req see
system.mem_ctrls.wrQLenPdf::4                       0                       # What write queue length does an incoming req see
system.mem_ctrls.wrQLenPdf::5                       0                       # What write queue length does an incoming req see
system.mem_ctrls.wrQLenPdf::6                       0                       # What write queue length does an incoming req see
system.mem_ctrls.wrQLenPdf::7                       0                       # What write queue length does an incoming req see
system.mem_ctrls.wrQLenPdf::8                       0                       # What write queue length does an incoming req see
system.mem_ctrls.wrQLenPdf::9                       0                       # What write queue length does an incoming req see
system.mem_ctrls.wrQLenPdf::10                      0                       # What write queue length does an incoming req see
system.mem_ctrls.wrQLenPdf::11                      0                       # What write queue length does an incoming req see
system.mem_ctrls.wrQLenPdf::12                      0                       # What write queue length does an incoming req see
system.mem_ctrls.wrQLenPdf::13                      0                       # What write queue length does an incoming req see
system.mem_ctrls.wrQLenPdf::14                      0                       # What write queue length does an incoming req see
system.mem_ctrls.wrQLenPdf::15                     57                       # What write queue length does an incoming req see
system.mem_ctrls.wrQLenPdf::16                     57                       # What write queue length does an incoming req see
system.mem_ctrls.wrQLenPdf::17                     69                       # What write queue length does an incoming req see
system.mem_ctrls.wrQLenPdf::18                     69                       # What write queue length does an incoming req see
system.mem_ctrls.wrQLenPdf::19                     69                       # What write queue length does an incoming req see
system.mem_ctrls.wrQLenPdf::20                     69                       # What write queue length does an incoming req see
system.mem_ctrls.wrQLenPdf::21                     68                       # What write queue length does an incoming req see
system.mem_ctrls.wrQLenPdf::22                     68                       # What write queue length does an incoming req see
system.mem_ctrls.wrQLenPdf::23                     68                       # What write queue length does an incoming req see
system.mem_ctrls.wrQLenPdf::24                     68                       # What write queue length does an incoming req see
system.mem_ctrls.wrQLenPdf::25                     68                       # What write queue length does an incoming req see
system.mem_ctrls.wrQLenPdf::26                     68                       # What write queue length does an incoming req see
system.mem_ctrls.wrQLenPdf::27                     68                       # What write queue length does an incoming req see
system.mem_ctrls.wrQLenPdf::28                     68                       # What write queue length does an incoming req see
system.mem_ctrls.wrQLenPdf::29                     68                       # What write queue length does an incoming req see
system.mem_ctrls.wrQLenPdf::30                     68                       # What write queue length does an incoming req see
system.mem_ctrls.wrQLenPdf::31                     68                       # What write queue length does an incoming req see
system.mem_ctrls.wrQLenPdf::32                     69                       # What write queue length does an incoming req see
system.mem_ctrls.wrQLenPdf::33                      0                       # What write queue length does an incoming req see
system.mem_ctrls.wrQLenPdf::34                      0                       # What write queue length does an incoming req see
system.mem_ctrls.wrQLenPdf::35                      0                       # What write queue length does an incoming req see
system.mem_ctrls.wrQLenPdf::36                      0                       # What write queue length does an incoming req see
system.mem_ctrls.wrQLenPdf::37                      0                       # What write queue length does an incoming req see
system.mem_ctrls.wrQLenPdf::38                      0                       # What write queue length does an incoming req see
system.mem_ctrls.wrQLenPdf::39                      0                       # What write queue length does an incoming req see
system.mem_ctrls.wrQLenPdf::40                      0                       # What write queue length does an incoming req see
system.mem_ctrls.wrQLenPdf::41                      0                       # What write queue length does an incoming req see
system.mem_ctrls.wrQLenPdf::42                      0                       # What write queue length does an incoming req see
system.mem_ctrls.wrQLenPdf::43                      0                       # What write queue length does an incoming req see
system.mem_ctrls.wrQLenPdf::44                      0                       # What write queue length does an incoming req see
system.mem_ctrls.wrQLenPdf::45                      0                       # What write queue length does an incoming req see
system.mem_ctrls.wrQLenPdf::46                      0                       # What write queue length does an incoming req see
system.mem_ctrls.wrQLenPdf::47                      0                       # What write queue length does an incoming req see
system.mem_ctrls.wrQLenPdf::48                      0                       # What write queue length does an incoming req see
system.mem_ctrls.wrQLenPdf::49                      0                       # What write queue length does an incoming req see
system.mem_ctrls.wrQLenPdf::50                      0                       # What write queue length does an incoming req see
system.mem_ctrls.wrQLenPdf::51                      0                       # What write queue length does an incoming req see
system.mem_ctrls.wrQLenPdf::52                      0                       # What write queue length does an incoming req see
system.mem_ctrls.wrQLenPdf::53                      0                       # What write queue length does an incoming req see
system.mem_ctrls.wrQLenPdf::54                      0                       # What write queue length does an incoming req see
system.mem_ctrls.wrQLenPdf::55                      0                       # What write queue length does an incoming req see
system.mem_ctrls.wrQLenPdf::56                      0                       # What write queue length does an incoming req see
system.mem_ctrls.wrQLenPdf::57                      0                       # What write queue length does an incoming req see
system.mem_ctrls.wrQLenPdf::58                      0                       # What write queue length does an incoming req see
system.mem_ctrls.wrQLenPdf::59                      0                       # What write queue length does an incoming req see
system.mem_ctrls.wrQLenPdf::60                      0                       # What write queue length does an incoming req see
system.mem_ctrls.wrQLenPdf::61                      0                       # What write queue length does an incoming req see
system.mem_ctrls.wrQLenPdf::62                      0                       # What write queue length does an incoming req see
system.mem_ctrls.wrQLenPdf::63                      0                       # What write queue length does an incoming req see
system.mem_ctrls.bytesPerActivate::samples         3524                       # Bytes accessed per row activation
system.mem_ctrls.bytesPerActivate::mean     84.758229                       # Bytes accessed per row activation
system.mem_ctrls.bytesPerActivate::gmean    69.383398                       # Bytes accessed per row activation
system.mem_ctrls.bytesPerActivate::stdev   127.573612                       # Bytes accessed per row activation
system.mem_ctrls.bytesPerActivate::0-127         3334     94.61%     94.61% # Bytes accessed per row activation
system.mem_ctrls.bytesPerActivate::128-255          110      3.12%     97.73% # Bytes accessed per row activation
system.mem_ctrls.bytesPerActivate::256-383            4      0.11%     97.84% # Bytes accessed per row activation
system.mem_ctrls.bytesPerActivate::384-511            6      0.17%     98.01% # Bytes accessed per row activation
system.mem_ctrls.bytesPerActivate::512-639            4      0.11%     98.13% # Bytes accessed per row activation
system.mem_ctrls.bytesPerActivate::640-767            1      0.03%     98.16% # Bytes accessed per row activation
system.mem_ctrls.bytesPerActivate::768-895            7      0.20%     98.35% # Bytes accessed per row activation
system.mem_ctrls.bytesPerActivate::896-1023            9      0.26%     98.61% # Bytes accessed per row activation
system.mem_ctrls.bytesPerActivate::1024-1151           49      1.39%    100.00% # Bytes accessed per row activation
system.mem_ctrls.bytesPerActivate::total         3524                       # Bytes accessed per row activation
system.mem_ctrls.rdPerTurnAround::samples           69                       # Reads before turning the bus around for writes
system.mem_ctrls.rdPerTurnAround::mean      50.376812                       # Reads before turning the bus around for writes
system.mem_ctrls.rdPerTurnAround::gmean     49.735731                       # Reads before turning the bus around for writes
system.mem_ctrls.rdPerTurnAround::stdev      6.604592                       # Reads before turning the bus around for writes
system.mem_ctrls.rdPerTurnAround::18-19             1      1.45%      1.45% # Reads before turning the bus around for writes
system.mem_ctrls.rdPerTurnAround::20-21             1      1.45%      2.90% # Reads before turning the bus around for writes
system.mem_ctrls.rdPerTurnAround::34-35             1      1.45%      4.35% # Reads before turning the bus around for writes
system.mem_ctrls.rdPerTurnAround::38-39             2      2.90%      7.25% # Reads before turning the bus around for writes
system.mem_ctrls.rdPerTurnAround::42-43             1      1.45%      8.70% # Reads before turning the bus around for writes
system.mem_ctrls.rdPerTurnAround::46-47             6      8.70%     17.39% # Reads before turning the bus around for writes
system.mem_ctrls.rdPerTurnAround::48-49             7     10.14%     27.54% # Reads before turning the bus around for writes
system.mem_ctrls.rdPerTurnAround::50-51             7     10.14%     37.68% # Reads before turning the bus around for writes
system.mem_ctrls.rdPerTurnAround::52-53            23     33.33%     71.01% # Reads before turning the bus around for writes
system.mem_ctrls.rdPerTurnAround::54-55            20     28.99%    100.00% # Reads before turning the bus around for writes
system.mem_ctrls.rdPerTurnAround::total            69                       # Reads before turning the bus around for writes
system.mem_ctrls.wrPerTurnAround::samples           69                       # Writes before turning the bus around for reads
system.mem_ctrls.wrPerTurnAround::mean      17.652174                       # Writes before turning the bus around for reads
system.mem_ctrls.wrPerTurnAround::gmean     17.635039                       # Writes before turning the bus around for reads
system.mem_ctrls.wrPerTurnAround::stdev      0.763623                       # Writes before turning the bus around for reads
system.mem_ctrls.wrPerTurnAround::16               12     17.39%     17.39% # Writes before turning the bus around for reads
system.mem_ctrls.wrPerTurnAround::18               57     82.61%    100.00% # Writes before turning the bus around for reads
system.mem_ctrls.wrPerTurnAround::total            69                       # Writes before turning the bus around for reads
system.mem_ctrls.totQLat                    261716750                       # Total ticks spent queuing
system.mem_ctrls.totMemAccLat               326404250                       # Total ticks spent from burst creation until serviced by the DRAM
system.mem_ctrls.totBusLat                   17250000                       # Total ticks spent in databus transfers
system.mem_ctrls.avgQLat                     75859.93                       # Average queueing delay per DRAM burst
system.mem_ctrls.avgBusLat                    5000.00                       # Average bus latency per DRAM burst
system.mem_ctrls.avgMemAccLat                94609.93                       # Average memory access latency per DRAM burst
system.mem_ctrls.avgRdBW                        14.46                       # Average DRAM read bandwidth in MiByte/s
system.mem_ctrls.avgWrBW                         5.11                       # Average achieved write bandwidth in MiByte/s
system.mem_ctrls.avgRdBWSys                     14.46                       # Average system read bandwidth in MiByte/s
system.mem_ctrls.avgWrBWSys                      5.06                       # Average system write bandwidth in MiByte/s
system.mem_ctrls.peakBW                      12800.00                       # Theoretical peak bandwidth in MiByte/s
system.mem_ctrls.busUtil                         0.15                       # Data bus utilization in percentage
system.mem_ctrls.busUtilRead                     0.11                       # Data bus utilization in percentage for reads
system.mem_ctrls.busUtilWrite                    0.04                       # Data bus utilization in percentage for writes
system.mem_ctrls.avgRdQLen                       1.00                       # Average read queue length when enqueuing
system.mem_ctrls.avgWrQLen                      24.65                       # Average write queue length when enqueuing
system.mem_ctrls.readRowHits                       66                       # Number of row buffer hits during reads
system.mem_ctrls.writeRowHits                    1077                       # Number of row buffer hits during writes
system.mem_ctrls.readRowHitRate                  1.91                       # Row buffer hit rate for reads
system.mem_ctrls.writeRowHitRate                89.23                       # Row buffer hit rate for writes
system.mem_ctrls.avgGap                    3278378.25                       # Average gap between requests
system.mem_ctrls.pageHitRate                    24.54                       # Row buffer hit rate, read and write combined
system.mem_ctrls_0.actEnergy                 17700060                       # Energy for activate commands per rank (pJ)
system.mem_ctrls_0.preEnergy                  9407805                       # Energy for precharge commands per rank (pJ)
system.mem_ctrls_0.readEnergy                17121720                       # Energy for read commands per rank (pJ)
system.mem_ctrls_0.writeEnergy                5501880                       # Energy for write commands per rank (pJ)
system.mem_ctrls_0.refreshEnergy         1287670800.000000                       # Energy for refresh commands per rank (pJ)
system.mem_ctrls_0.actBackEnergy            354999990                       # Energy for active background per rank (pJ)
system.mem_ctrls_0.preBackEnergy             49924800                       # Energy for precharge background per rank (pJ)
system.mem_ctrls_0.actPowerDownEnergy      3307603410                       # Energy for active power-down per rank (pJ)
system.mem_ctrls_0.prePowerDownEnergy      2382328320                       # Energy for precharge power-down per rank (pJ)
system.mem_ctrls_0.selfRefreshEnergy        364318620                       # Energy for self refresh per rank (pJ)
system.mem_ctrls_0.totalEnergy             7797969885                       # Total energy per rank (pJ)
system.mem_ctrls_0.averagePower            510.761389                       # Core power per rank (mW)
system.mem_ctrls_0.totalIdleTime          14336062625                       # Total Idle time Per DRAM Rank
system.mem_ctrls_0.memoryStateTime::IDLE     79926000                       # Time in different power states
system.mem_ctrls_0.memoryStateTime::REF     546494000                       # Time in different power states
system.mem_ctrls_0.memoryStateTime::SREF    898217375                       # Time in different power states
system.mem_ctrls_0.memoryStateTime::PRE_PDN   6203872500                       # Time in different power states
system.mem_ctrls_0.memoryStateTime::ACT     285538000                       # Time in different power states
system.mem_ctrls_0.memoryStateTime::ACT_PDN   7253296250                       # Time in different power states
system.mem_ctrls_1.actEnergy                  7468440                       # Energy for activate commands per rank (pJ)
system.mem_ctrls_1.preEnergy                  3965775                       # Energy for precharge commands per rank (pJ)
system.mem_ctrls_1.readEnergy                 7511280                       # Energy for read commands per rank (pJ)
system.mem_ctrls_1.writeEnergy                 856080                       # Energy for write commands per rank (pJ)
system.mem_ctrls_1.refreshEnergy         733880160.000000                       # Energy for refresh commands per rank (pJ)
system.mem_ctrls_1.actBackEnergy            173228700                       # Energy for active background per rank (pJ)
system.mem_ctrls_1.preBackEnergy             24129600                       # Energy for precharge background per rank (pJ)
system.mem_ctrls_1.actPowerDownEnergy      1788920490                       # Energy for active power-down per rank (pJ)
system.mem_ctrls_1.prePowerDownEnergy      1599731040                       # Energy for precharge power-down per rank (pJ)
system.mem_ctrls_1.selfRefreshEnergy       1675076940                       # Energy for self refresh per rank (pJ)
system.mem_ctrls_1.totalEnergy             6015668385                       # Total energy per rank (pJ)
system.mem_ctrls_1.averagePower            394.021929                       # Core power per rank (mW)
system.mem_ctrls_1.totalIdleTime          14819356875                       # Total Idle time Per DRAM Rank
system.mem_ctrls_1.memoryStateTime::IDLE     33942000                       # Time in different power states
system.mem_ctrls_1.memoryStateTime::REF     311202000                       # Time in different power states
system.mem_ctrls_1.memoryStateTime::SREF   6733576000                       # Time in different power states
system.mem_ctrls_1.memoryStateTime::PRE_PDN   4165868875                       # Time in different power states
system.mem_ctrls_1.memoryStateTime::ACT      99704250                       # Time in different power states
system.mem_ctrls_1.memoryStateTime::ACT_PDN   3923051000                       # Time in different power states
system.pwrStateResidencyTicks::UNDEFINED  15267344125                       # Cumulative time (in ticks) in various power states
system.cpu0.branchPred.lookups               12768363                       # Number of BP lookups
system.cpu0.branchPred.condPredicted         12768363                       # Number of conditional branches predicted
system.cpu0.branchPred.condIncorrect           964534                       # Number of conditional branches incorrect
system.cpu0.branchPred.BTBLookups            10688597                       # Number of BTB lookups
system.cpu0.branchPred.BTBHits                      0                       # Number of BTB hits
system.cpu0.branchPred.BTBCorrect                   0                       # Number of correct BTB predictions (this stat may not work properly.
system.cpu0.branchPred.BTBHitPct             0.000000                       # BTB Hit Percentage
system.cpu0.branchPred.usedRAS                 928726                       # Number of times the RAS was used to get a target.
system.cpu0.branchPred.RASInCorrect            195327                       # Number of incorrect RAS predictions.
system.cpu0.branchPred.indirectLookups       10688597                       # Number of indirect predictor lookups.
system.cpu0.branchPred.indirectHits           3785593                       # Number of indirect target hits.
system.cpu0.branchPred.indirectMisses         6903004                       # Number of indirect misses.
system.cpu0.branchPredindirectMispredicted       686315                       # Number of mispredicted indirect branches.
system.cpu_voltage_domain.voltage                   1                       # Voltage in Volts
system.cpu_clk_domain.clock                       500                       # Clock period in ticks
system.cpu0.dtb.walker.pwrStateResidencyTicks::UNDEFINED  15267344125                       # Cumulative time (in ticks) in various power states
system.cpu0.dtb.rdAccesses                    9977226                       # TLB accesses on read requests
system.cpu0.dtb.wrAccesses                    7578589                       # TLB accesses on write requests
system.cpu0.dtb.rdMisses                       109194                       # TLB misses on read requests
system.cpu0.dtb.wrMisses                        33700                       # TLB misses on write requests
system.cpu0.apic_clk_domain.clock                8000                       # Clock period in ticks
system.cpu0.interrupts.pwrStateResidencyTicks::UNDEFINED  15267344125                       # Cumulative time (in ticks) in various power states
system.cpu0.itb.walker.pwrStateResidencyTicks::UNDEFINED  15267344125                       # Cumulative time (in ticks) in various power states
system.cpu0.itb.rdAccesses                          0                       # TLB accesses on read requests
system.cpu0.itb.wrAccesses                    8803278                       # TLB accesses on write requests
system.cpu0.itb.rdMisses                            0                       # TLB misses on read requests
system.cpu0.itb.wrMisses                        14980                       # TLB misses on write requests
system.cpu0.workload.numSyscalls                   24                       # Number of system calls
system.cpu0.pwrStateResidencyTicks::ON    15267344125                       # Cumulative time (in ticks) in various power states
system.cpu0.numCycles                        30534689                       # number of cpu cycles simulated
system.cpu0.numWorkItemsStarted                     0                       # number of work items this cpu started
system.cpu0.numWorkItemsCompleted                   0                       # number of work items this cpu completed
system.cpu0.fetch.icacheStallCycles          10441642                       # Number of cycles fetch is stalled on an Icache miss
system.cpu0.fetch.Insts                      57706430                       # Number of instructions fetch has processed
system.cpu0.fetch.Branches                   12768363                       # Number of branches that fetch encountered
system.cpu0.fetch.predictedBranches           4714319                       # Number of branches that fetch has predicted taken
system.cpu0.fetch.Cycles                     19005634                       # Number of cycles fetch has run and was not squashing or blocked
system.cpu0.fetch.SquashCycles                1947122                       # Number of cycles fetch has spent squashing
system.cpu0.fetch.MiscStallCycles                8183                       # Number of cycles fetch has spent waiting on interrupts, or bad addresses, or out of MSHRs
system.cpu0.fetch.PendingTrapStallCycles        64037                       # Number of stall cycles due to pending traps
system.cpu0.fetch.CacheLines                  8788298                       # Number of cache lines fetched
system.cpu0.fetch.IcacheSquashes               258282                       # Number of outstanding Icache misses that were squashed
system.cpu0.fetch.rateDist::samples          30493057                       # Number of instructions fetched each cycle (Total)
system.cpu0.fetch.rateDist::mean             3.615469                       # Number of instructions fetched each cycle (Total)
system.cpu0.fetch.rateDist::stdev            3.567421                       # Number of instructions fetched each cycle (Total)
system.cpu0.fetch.rateDist::underflows              0      0.00%      0.00% # Number of instructions fetched each cycle (Total)
system.cpu0.fetch.rateDist::0                12816812     42.03%     42.03% # Number of instructions fetched each cycle (Total)
system.cpu0.fetch.rateDist::1                  827761      2.71%     44.75% # Number of instructions fetched each cycle (Total)
system.cpu0.fetch.rateDist::2                 1250301      4.10%     48.85% # Number of instructions fetched each cycle (Total)
system.cpu0.fetch.rateDist::3                 1423789      4.67%     53.52% # Number of instructions fetched each cycle (Total)
system.cpu0.fetch.rateDist::4                 1104556      3.62%     57.14% # Number of instructions fetched each cycle (Total)
system.cpu0.fetch.rateDist::5                 1128206      3.70%     60.84% # Number of instructions fetched each cycle (Total)
system.cpu0.fetch.rateDist::6                 1028924      3.37%     64.21% # Number of instructions fetched each cycle (Total)
system.cpu0.fetch.rateDist::7                  887498      2.91%     67.12% # Number of instructions fetched each cycle (Total)
system.cpu0.fetch.rateDist::8                10025210     32.88%    100.00% # Number of instructions fetched each cycle (Total)
system.cpu0.fetch.rateDist::overflows               0      0.00%    100.00% # Number of instructions fetched each cycle (Total)
system.cpu0.fetch.rateDist::min_value               0                       # Number of instructions fetched each cycle (Total)
system.cpu0.fetch.rateDist::max_value               8                       # Number of instructions fetched each cycle (Total)
system.cpu0.fetch.rateDist::total            30493057                       # Number of instructions fetched each cycle (Total)
system.cpu0.fetch.branchRate                 0.418159                       # Number of branch fetches per cycle
system.cpu0.fetch.rate                       1.889865                       # Number of inst fetches per cycle
system.cpu0.decode.IdleCycles                 9452105                       # Number of cycles decode is idle
system.cpu0.decode.BlockedCycles              3802443                       # Number of cycles decode is blocked
system.cpu0.decode.RunCycles                 15393083                       # Number of cycles decode is running
system.cpu0.decode.UnblockCycles               871865                       # Number of cycles decode is unblocking
system.cpu0.decode.SquashCycles                973561                       # Number of cycles decode is squashing
system.cpu0.decode.DecodedInsts             105433203                       # Number of instructions handled by decode
system.cpu0.rename.SquashCycles                973561                       # Number of cycles rename is squashing
system.cpu0.rename.IdleCycles                10134825                       # Number of cycles rename is idle
system.cpu0.rename.BlockCycles                2880578                       # Number of cycles rename is blocking
system.cpu0.rename.serializeStallCycles          4407                       # count of cycles rename stalled for serializing inst
system.cpu0.rename.RunCycles                 15525109                       # Number of cycles rename is running
system.cpu0.rename.UnblockCycles               974577                       # Number of cycles rename is unblocking
system.cpu0.rename.RenamedInsts             101049704                       # Number of instructions processed by rename
system.cpu0.rename.ROBFullEvents                  975                       # Number of times rename has blocked due to ROB full
system.cpu0.rename.IQFullEvents                 81295                       # Number of times rename has blocked due to IQ full
system.cpu0.rename.LQFullEvents                   128                       # Number of times rename has blocked due to LQ full
system.cpu0.rename.SQFullEvents                830296                       # Number of times rename has blocked due to SQ full
system.cpu0.rename.RenamedOperands          107642013                       # Number of destination operands rename has renamed
system.cpu0.rename.RenameLookups            255011187                       # Number of register rename lookups that rename has made
system.cpu0.rename.int_rename_lookups       152015331                       # Number of integer rename lookups
system.cpu0.rename.fp_rename_lookups          3183744                       # Number of floating rename lookups
system.cpu0.rename.CommittedMaps             70741588                       # Number of HB maps that are committed
system.cpu0.rename.UndoneMaps                36900433                       # Number of HB maps that are undone due to squashing
system.cpu0.rename.serializingInsts               568                       # count of serializing insts renamed
system.cpu0.rename.tempSerializingInsts           639                       # count of temporary serializing insts renamed
system.cpu0.rename.skidInsts                  1047878                       # count of insts added to the skid buffer
system.cpu0.memDep0.insertedLoads            11642851                       # Number of loads inserted to the mem dependence unit.
system.cpu0.memDep0.insertedStores            8822920                       # Number of stores inserted to the mem dependence unit.
system.cpu0.memDep0.conflictingLoads           494347                       # Number of conflicting loads.
system.cpu0.memDep0.conflictingStores          188902                       # Number of conflicting stores.
system.cpu0.iq.iqInstsAdded                  92087552                       # Number of instructions added to the IQ (excludes non-spec)
system.cpu0.iq.iqNonSpecInstsAdded              45086                       # Number of non-speculative instructions added to the IQ
system.cpu0.iq.iqInstsIssued                 83179877                       # Number of instructions issued
system.cpu0.iq.iqSquashedInstsIssued           389109                       # Number of squashed instructions issued
system.cpu0.iq.iqSquashedInstsExamined       25937806                       # Number of squashed instructions iterated over during squash; mainly for profiling
system.cpu0.iq.iqSquashedOperandsExamined     37574368                       # Number of squashed operands that are examined and possibly removed from graph
system.cpu0.iq.iqSquashedNonSpecRemoved         45062                       # Number of squashed non-spec instructions that were removed
system.cpu0.iq.issued_per_cycle::samples     30493057                       # Number of insts issued each cycle
system.cpu0.iq.issued_per_cycle::mean        2.727830                       # Number of insts issued each cycle
system.cpu0.iq.issued_per_cycle::stdev       2.493652                       # Number of insts issued each cycle
system.cpu0.iq.issued_per_cycle::underflows            0      0.00%      0.00% # Number of insts issued each cycle
system.cpu0.iq.issued_per_cycle::0            9472900     31.07%     31.07% # Number of insts issued each cycle
system.cpu0.iq.issued_per_cycle::1            2919033      9.57%     40.64% # Number of insts issued each cycle
system.cpu0.iq.issued_per_cycle::2            3251483     10.66%     51.30% # Number of insts issued each cycle
system.cpu0.iq.issued_per_cycle::3            3229184     10.59%     61.89% # Number of insts issued each cycle
system.cpu0.iq.issued_per_cycle::4            3192216     10.47%     72.36% # Number of insts issued each cycle
system.cpu0.iq.issued_per_cycle::5            2789378      9.15%     81.51% # Number of insts issued each cycle
system.cpu0.iq.issued_per_cycle::6            3087847     10.13%     91.63% # Number of insts issued each cycle
system.cpu0.iq.issued_per_cycle::7            1580638      5.18%     96.82% # Number of insts issued each cycle
system.cpu0.iq.issued_per_cycle::8             970378      3.18%    100.00% # Number of insts issued each cycle
system.cpu0.iq.issued_per_cycle::overflows            0      0.00%    100.00% # Number of insts issued each cycle
system.cpu0.iq.issued_per_cycle::min_value            0                       # Number of insts issued each cycle
system.cpu0.iq.issued_per_cycle::max_value            8                       # Number of insts issued each cycle
system.cpu0.iq.issued_per_cycle::total       30493057                       # Number of insts issued each cycle
system.cpu0.iq.fu_full::No_OpClass                  0      0.00%      0.00% # attempts to use FU when none available
system.cpu0.iq.fu_full::IntAlu                 739772     71.31%     71.31% # attempts to use FU when none available
system.cpu0.iq.fu_full::IntMult                     0      0.00%     71.31% # attempts to use FU when none available
system.cpu0.iq.fu_full::IntDiv                      0      0.00%     71.31% # attempts to use FU when none available
system.cpu0.iq.fu_full::FloatAdd                15671      1.51%     72.83% # attempts to use FU when none available
system.cpu0.iq.fu_full::FloatCmp                    0      0.00%     72.83% # attempts to use FU when none available
system.cpu0.iq.fu_full::FloatCvt                    0      0.00%     72.83% # attempts to use FU when none available
system.cpu0.iq.fu_full::FloatMult                   0      0.00%     72.83% # attempts to use FU when none available
system.cpu0.iq.fu_full::FloatMultAcc                0      0.00%     72.83% # attempts to use FU when none available
system.cpu0.iq.fu_full::FloatDiv                    0      0.00%     72.83% # attempts to use FU when none available
system.cpu0.iq.fu_full::FloatMisc                   0      0.00%     72.83% # attempts to use FU when none available
system.cpu0.iq.fu_full::FloatSqrt                   0      0.00%     72.83% # attempts to use FU when none available
system.cpu0.iq.fu_full::SimdAdd                     0      0.00%     72.83% # attempts to use FU when none available
system.cpu0.iq.fu_full::SimdAddAcc                  0      0.00%     72.83% # attempts to use FU when none available
system.cpu0.iq.fu_full::SimdAlu                     0      0.00%     72.83% # attempts to use FU when none available
system.cpu0.iq.fu_full::SimdCmp                     0      0.00%     72.83% # attempts to use FU when none available
system.cpu0.iq.fu_full::SimdCvt                     0      0.00%     72.83% # attempts to use FU when none available
system.cpu0.iq.fu_full::SimdMisc                    0      0.00%     72.83% # attempts to use FU when none available
system.cpu0.iq.fu_full::SimdMult                    0      0.00%     72.83% # attempts to use FU when none available
system.cpu0.iq.fu_full::SimdMultAcc                 0      0.00%     72.83% # attempts to use FU when none available
system.cpu0.iq.fu_full::SimdShift                   0      0.00%     72.83% # attempts to use FU when none available
system.cpu0.iq.fu_full::SimdShiftAcc                0      0.00%     72.83% # attempts to use FU when none available
system.cpu0.iq.fu_full::SimdSqrt                    0      0.00%     72.83% # attempts to use FU when none available
system.cpu0.iq.fu_full::SimdFloatAdd                0      0.00%     72.83% # attempts to use FU when none available
system.cpu0.iq.fu_full::SimdFloatAlu                0      0.00%     72.83% # attempts to use FU when none available
system.cpu0.iq.fu_full::SimdFloatCmp                0      0.00%     72.83% # attempts to use FU when none available
system.cpu0.iq.fu_full::SimdFloatCvt                0      0.00%     72.83% # attempts to use FU when none available
system.cpu0.iq.fu_full::SimdFloatDiv                0      0.00%     72.83% # attempts to use FU when none available
system.cpu0.iq.fu_full::SimdFloatMisc               0      0.00%     72.83% # attempts to use FU when none available
system.cpu0.iq.fu_full::SimdFloatMult               0      0.00%     72.83% # attempts to use FU when none available
system.cpu0.iq.fu_full::SimdFloatMultAcc            0      0.00%     72.83% # attempts to use FU when none available
system.cpu0.iq.fu_full::SimdFloatSqrt               0      0.00%     72.83% # attempts to use FU when none available
system.cpu0.iq.fu_full::MemRead                 99051      9.55%     82.37% # attempts to use FU when none available
system.cpu0.iq.fu_full::MemWrite                93698      9.03%     91.41% # attempts to use FU when none available
system.cpu0.iq.fu_full::FloatMemRead              910      0.09%     91.49% # attempts to use FU when none available
system.cpu0.iq.fu_full::FloatMemWrite           88229      8.51%    100.00% # attempts to use FU when none available
system.cpu0.iq.fu_full::IprAccess                   0      0.00%    100.00% # attempts to use FU when none available
system.cpu0.iq.fu_full::InstPrefetch                0      0.00%    100.00% # attempts to use FU when none available
system.cpu0.iq.FU_type_0::No_OpClass           487809      0.59%      0.59% # Type of FU issued
system.cpu0.iq.FU_type_0::IntAlu             63004438     75.74%     76.33% # Type of FU issued
system.cpu0.iq.FU_type_0::IntMult               72242      0.09%     76.42% # Type of FU issued
system.cpu0.iq.FU_type_0::IntDiv                89523      0.11%     76.53% # Type of FU issued
system.cpu0.iq.FU_type_0::FloatAdd            1187352      1.43%     77.95% # Type of FU issued
system.cpu0.iq.FU_type_0::FloatCmp                  0      0.00%     77.95% # Type of FU issued
system.cpu0.iq.FU_type_0::FloatCvt                  0      0.00%     77.95% # Type of FU issued
system.cpu0.iq.FU_type_0::FloatMult                 0      0.00%     77.95% # Type of FU issued
system.cpu0.iq.FU_type_0::FloatMultAcc              0      0.00%     77.95% # Type of FU issued
system.cpu0.iq.FU_type_0::FloatDiv                  0      0.00%     77.95% # Type of FU issued
system.cpu0.iq.FU_type_0::FloatMisc                 0      0.00%     77.95% # Type of FU issued
system.cpu0.iq.FU_type_0::FloatSqrt                 0      0.00%     77.95% # Type of FU issued
system.cpu0.iq.FU_type_0::SimdAdd                   0      0.00%     77.95% # Type of FU issued
system.cpu0.iq.FU_type_0::SimdAddAcc                0      0.00%     77.95% # Type of FU issued
system.cpu0.iq.FU_type_0::SimdAlu                   0      0.00%     77.95% # Type of FU issued
system.cpu0.iq.FU_type_0::SimdCmp                   0      0.00%     77.95% # Type of FU issued
system.cpu0.iq.FU_type_0::SimdCvt                   0      0.00%     77.95% # Type of FU issued
system.cpu0.iq.FU_type_0::SimdMisc                  0      0.00%     77.95% # Type of FU issued
system.cpu0.iq.FU_type_0::SimdMult                  0      0.00%     77.95% # Type of FU issued
system.cpu0.iq.FU_type_0::SimdMultAcc               0      0.00%     77.95% # Type of FU issued
system.cpu0.iq.FU_type_0::SimdShift                 0      0.00%     77.95% # Type of FU issued
system.cpu0.iq.FU_type_0::SimdShiftAcc              0      0.00%     77.95% # Type of FU issued
system.cpu0.iq.FU_type_0::SimdSqrt                  0      0.00%     77.95% # Type of FU issued
system.cpu0.iq.FU_type_0::SimdFloatAdd              0      0.00%     77.95% # Type of FU issued
system.cpu0.iq.FU_type_0::SimdFloatAlu              0      0.00%     77.95% # Type of FU issued
system.cpu0.iq.FU_type_0::SimdFloatCmp              0      0.00%     77.95% # Type of FU issued
system.cpu0.iq.FU_type_0::SimdFloatCvt              0      0.00%     77.95% # Type of FU issued
system.cpu0.iq.FU_type_0::SimdFloatDiv              0      0.00%     77.95% # Type of FU issued
system.cpu0.iq.FU_type_0::SimdFloatMisc             0      0.00%     77.95% # Type of FU issued
system.cpu0.iq.FU_type_0::SimdFloatMult             0      0.00%     77.95% # Type of FU issued
system.cpu0.iq.FU_type_0::SimdFloatMultAcc            0      0.00%     77.95% # Type of FU issued
system.cpu0.iq.FU_type_0::SimdFloatSqrt             0      0.00%     77.95% # Type of FU issued
system.cpu0.iq.FU_type_0::MemRead            10059155     12.09%     90.05% # Type of FU issued
system.cpu0.iq.FU_type_0::MemWrite            7595948      9.13%     99.18% # Type of FU issued
system.cpu0.iq.FU_type_0::FloatMemRead         400602      0.48%     99.66% # Type of FU issued
system.cpu0.iq.FU_type_0::FloatMemWrite        282808      0.34%    100.00% # Type of FU issued
system.cpu0.iq.FU_type_0::IprAccess                 0      0.00%    100.00% # Type of FU issued
system.cpu0.iq.FU_type_0::InstPrefetch              0      0.00%    100.00% # Type of FU issued
system.cpu0.iq.FU_type_0::total              83179877                       # Type of FU issued
system.cpu0.iq.rate                          2.724111                       # Inst issue rate
system.cpu0.iq.fu_busy_cnt                    1037331                       # FU busy when requested
system.cpu0.iq.fu_busy_rate                  0.012471                       # FU busy rate (busy events/executed inst)
system.cpu0.iq.int_inst_queue_reads         194277939                       # Number of integer instruction queue reads
system.cpu0.iq.int_inst_queue_writes        114971923                       # Number of integer instruction queue writes
system.cpu0.iq.int_inst_queue_wakeup_accesses     78108324                       # Number of integer instruction queue wakeup accesses
system.cpu0.iq.fp_inst_queue_reads            4001308                       # Number of floating instruction queue reads
system.cpu0.iq.fp_inst_queue_writes           3099544                       # Number of floating instruction queue writes
system.cpu0.iq.fp_inst_queue_wakeup_accesses      1813772                       # Number of floating instruction queue wakeup accesses
system.cpu0.iq.vec_inst_queue_reads                 0                       # Number of vector instruction queue reads
system.cpu0.iq.vec_inst_queue_writes                0                       # Number of vector instruction queue writes
system.cpu0.iq.vec_inst_queue_wakeup_accesses            0                       # Number of vector instruction queue wakeup accesses
system.cpu0.iq.int_alu_accesses              81708977                       # Number of integer alu accesses
system.cpu0.iq.fp_alu_accesses                2020422                       # Number of floating point alu accesses
system.cpu0.iq.vec_alu_accesses                     0                       # Number of vector alu accesses
system.cpu0.iew.lsq.thread0.forwLoads         1282593                       # Number of loads that had data forwarded from stores
system.cpu0.iew.lsq.thread0.invAddrLoads            0                       # Number of loads ignored due to an invalid address
system.cpu0.iew.lsq.thread0.squashedLoads      3713150                       # Number of loads squashed
system.cpu0.iew.lsq.thread0.ignoredResponses         8272                       # Number of memory responses ignored because the instruction is squashed
system.cpu0.iew.lsq.thread0.memOrderViolation         2445                       # Number of memory ordering violations
system.cpu0.iew.lsq.thread0.squashedStores      2332104                       # Number of stores squashed
system.cpu0.iew.lsq.thread0.invAddrSwpfs            0                       # Number of software prefetches ignored due to an invalid address
system.cpu0.iew.lsq.thread0.blockedLoads            0                       # Number of blocked loads due to partial load-store forwarding
system.cpu0.iew.lsq.thread0.rescheduledLoads          104                       # Number of loads that were rescheduled
system.cpu0.iew.lsq.thread0.cacheBlocked            0                       # Number of times an access to memory failed due to the cache being blocked
system.cpu0.iew.iewIdleCycles                       0                       # Number of cycles IEW is idle
system.cpu0.iew.iewSquashCycles                973561                       # Number of cycles IEW is squashing
system.cpu0.iew.iewBlockCycles                2925171                       # Number of cycles IEW is blocking
system.cpu0.iew.iewUnblockCycles                 5476                       # Number of cycles IEW is unblocking
system.cpu0.iew.iewDispatchedInsts           92132638                       # Number of instructions dispatched to IQ
system.cpu0.iew.iewDispSquashedInsts            22080                       # Number of squashed instructions skipped by dispatch
system.cpu0.iew.iewDispLoadInsts             11642851                       # Number of dispatched load instructions
system.cpu0.iew.iewDispStoreInsts             8822920                       # Number of dispatched store instructions
system.cpu0.iew.iewDispNonSpecInsts             15815                       # Number of dispatched non-speculative instructions
system.cpu0.iew.iewIQFullEvents                   751                       # Number of times the IQ has become full, causing a stall
system.cpu0.iew.iewLSQFullEvents                 3993                       # Number of times the LSQ has become full, causing a stall
system.cpu0.iew.memOrderViolationEvents          2445                       # Number of memory order violations
system.cpu0.iew.predictedTakenIncorrect        277596                       # Number of branches that were predicted taken incorrectly
system.cpu0.iew.predictedNotTakenIncorrect       984966                       # Number of branches that were predicted not taken incorrectly
system.cpu0.iew.branchMispredicts             1262562                       # Number of branch mispredicts detected at execute
system.cpu0.iew.iewExecutedInsts             80925624                       # Number of executed instructions
system.cpu0.iew.iewExecLoadInsts              9970331                       # Number of load instructions executed
system.cpu0.iew.iewExecSquashedInsts          2254249                       # Number of squashed instructions skipped in execute
system.cpu0.iew.exec_swp                            0                       # number of swp insts executed
system.cpu0.iew.exec_nop                            0                       # number of nop insts executed
system.cpu0.iew.exec_refs                    17543180                       # number of memory reference insts executed
system.cpu0.iew.exec_branches                 8805259                       # Number of branches executed
system.cpu0.iew.exec_stores                   7572849                       # Number of stores executed
system.cpu0.iew.exec_rate                    2.650285                       # Inst execution rate
system.cpu0.iew.wb_sent                      80436565                       # cumulative count of insts sent to commit
system.cpu0.iew.wb_count                     79922096                       # cumulative count of insts written-back
system.cpu0.iew.wb_producers                 55864112                       # num instructions producing a value
system.cpu0.iew.wb_consumers                 87604149                       # num instructions consuming a value
system.cpu0.iew.wb_rate                      2.617420                       # insts written-back per cycle
system.cpu0.iew.wb_fanout                    0.637688                       # average fanout of values written-back
system.cpu0.commit.commitSquashedInsts       25938252                       # The number of squashed insts skipped by commit
system.cpu0.commit.commitNonSpecStalls             24                       # The number of times commit has been forced to stall to communicate backwards
system.cpu0.commit.branchMispredicts           972897                       # The number of times a branch was mispredicted
system.cpu0.commit.committed_per_cycle::samples     26608535                       # Number of insts commited each cycle
system.cpu0.commit.committed_per_cycle::mean     2.487730                       # Number of insts commited each cycle
system.cpu0.commit.committed_per_cycle::stdev     2.736113                       # Number of insts commited each cycle
system.cpu0.commit.committed_per_cycle::underflows            0      0.00%      0.00% # Number of insts commited each cycle
system.cpu0.commit.committed_per_cycle::0      9264575     34.82%     34.82% # Number of insts commited each cycle
system.cpu0.commit.committed_per_cycle::1      3867617     14.54%     49.35% # Number of insts commited each cycle
system.cpu0.commit.committed_per_cycle::2      2737938     10.29%     59.64% # Number of insts commited each cycle
system.cpu0.commit.committed_per_cycle::3      3763422     14.14%     73.79% # Number of insts commited each cycle
system.cpu0.commit.committed_per_cycle::4      1139738      4.28%     78.07% # Number of insts commited each cycle
system.cpu0.commit.committed_per_cycle::5      1165934      4.38%     82.45% # Number of insts commited each cycle
system.cpu0.commit.committed_per_cycle::6       847392      3.18%     85.64% # Number of insts commited each cycle
system.cpu0.commit.committed_per_cycle::7       487231      1.83%     87.47% # Number of insts commited each cycle
system.cpu0.commit.committed_per_cycle::8      3334688     12.53%    100.00% # Number of insts commited each cycle
system.cpu0.commit.committed_per_cycle::overflows            0      0.00%    100.00% # Number of insts commited each cycle
system.cpu0.commit.committed_per_cycle::min_value            0                       # Number of insts commited each cycle
system.cpu0.commit.committed_per_cycle::max_value            8                       # Number of insts commited each cycle
system.cpu0.commit.committed_per_cycle::total     26608535                       # Number of insts commited each cycle
system.cpu0.commit.committedInsts            34953915                       # Number of instructions committed
system.cpu0.commit.committedOps              66194854                       # Number of ops (including micro ops) committed
system.cpu0.commit.swp_count                        0                       # Number of s/w prefetches committed
system.cpu0.commit.refs                      14420519                       # Number of memory references committed
system.cpu0.commit.loads                      7929703                       # Number of loads committed
system.cpu0.commit.membars                          0                       # Number of memory barriers committed
system.cpu0.commit.branches                   7694945                       # Number of branches committed
system.cpu0.commit.vec_insts                        0                       # Number of committed Vector instructions.
system.cpu0.commit.fp_insts                   1347846                       # Number of committed floating point instructions.
system.cpu0.commit.int_insts                 65182368                       # Number of committed integer instructions.
system.cpu0.commit.function_calls              478710                       # Number of function calls committed.
system.cpu0.commit.op_class_0::No_OpClass       268445      0.41%      0.41% # Class of committed instruction
system.cpu0.commit.op_class_0::IntAlu        50353122     76.07%     76.47% # Class of committed instruction
system.cpu0.commit.op_class_0::IntMult          56169      0.08%     76.56% # Class of committed instruction
system.cpu0.commit.op_class_0::IntDiv           78449      0.12%     76.68% # Class of committed instruction
system.cpu0.commit.op_class_0::FloatAdd       1018150      1.54%     78.22% # Class of committed instruction
system.cpu0.commit.op_class_0::FloatCmp             0      0.00%     78.22% # Class of committed instruction
system.cpu0.commit.op_class_0::FloatCvt             0      0.00%     78.22% # Class of committed instruction
system.cpu0.commit.op_class_0::FloatMult            0      0.00%     78.22% # Class of committed instruction
system.cpu0.commit.op_class_0::FloatMultAcc            0      0.00%     78.22% # Class of committed instruction
system.cpu0.commit.op_class_0::FloatDiv             0      0.00%     78.22% # Class of committed instruction
system.cpu0.commit.op_class_0::FloatMisc            0      0.00%     78.22% # Class of committed instruction
system.cpu0.commit.op_class_0::FloatSqrt            0      0.00%     78.22% # Class of committed instruction
system.cpu0.commit.op_class_0::SimdAdd              0      0.00%     78.22% # Class of committed instruction
system.cpu0.commit.op_class_0::SimdAddAcc            0      0.00%     78.22% # Class of committed instruction
system.cpu0.commit.op_class_0::SimdAlu              0      0.00%     78.22% # Class of committed instruction
system.cpu0.commit.op_class_0::SimdCmp              0      0.00%     78.22% # Class of committed instruction
system.cpu0.commit.op_class_0::SimdCvt              0      0.00%     78.22% # Class of committed instruction
system.cpu0.commit.op_class_0::SimdMisc             0      0.00%     78.22% # Class of committed instruction
system.cpu0.commit.op_class_0::SimdMult             0      0.00%     78.22% # Class of committed instruction
system.cpu0.commit.op_class_0::SimdMultAcc            0      0.00%     78.22% # Class of committed instruction
system.cpu0.commit.op_class_0::SimdShift            0      0.00%     78.22% # Class of committed instruction
system.cpu0.commit.op_class_0::SimdShiftAcc            0      0.00%     78.22% # Class of committed instruction
system.cpu0.commit.op_class_0::SimdSqrt             0      0.00%     78.22% # Class of committed instruction
system.cpu0.commit.op_class_0::SimdFloatAdd            0      0.00%     78.22% # Class of committed instruction
system.cpu0.commit.op_class_0::SimdFloatAlu            0      0.00%     78.22% # Class of committed instruction
system.cpu0.commit.op_class_0::SimdFloatCmp            0      0.00%     78.22% # Class of committed instruction
system.cpu0.commit.op_class_0::SimdFloatCvt            0      0.00%     78.22% # Class of committed instruction
system.cpu0.commit.op_class_0::SimdFloatDiv            0      0.00%     78.22% # Class of committed instruction
system.cpu0.commit.op_class_0::SimdFloatMisc            0      0.00%     78.22% # Class of committed instruction
system.cpu0.commit.op_class_0::SimdFloatMult            0      0.00%     78.22% # Class of committed instruction
system.cpu0.commit.op_class_0::SimdFloatMultAcc            0      0.00%     78.22% # Class of committed instruction
system.cpu0.commit.op_class_0::SimdFloatSqrt            0      0.00%     78.22% # Class of committed instruction
system.cpu0.commit.op_class_0::MemRead        7644857     11.55%     89.76% # Class of committed instruction
system.cpu0.commit.op_class_0::MemWrite       6490816      9.81%     99.57% # Class of committed instruction
system.cpu0.commit.op_class_0::FloatMemRead       284846      0.43%    100.00% # Class of committed instruction
system.cpu0.commit.op_class_0::FloatMemWrite            0      0.00%    100.00% # Class of committed instruction
system.cpu0.commit.op_class_0::IprAccess            0      0.00%    100.00% # Class of committed instruction
system.cpu0.commit.op_class_0::InstPrefetch            0      0.00%    100.00% # Class of committed instruction
system.cpu0.commit.op_class_0::total         66194854                       # Class of committed instruction
system.cpu0.commit.bw_lim_events              3334688                       # number cycles where commit BW limit reached
system.cpu0.rob.rob_reads                   115406953                       # The number of ROB reads
system.cpu0.rob.rob_writes                  188224839                       # The number of ROB writes
system.cpu0.timesIdled                          12817                       # Number of times that the entire CPU went into an idle state and unscheduled itself
system.cpu0.idleCycles                          41632                       # Total number of cycles that the CPU has spent unscheduled due to idling
system.cpu0.committedInsts                   34953915                       # Number of Instructions Simulated
system.cpu0.committedOps                     66194854                       # Number of Ops (including micro ops) Simulated
system.cpu0.cpi                              0.873570                       # CPI: Cycles Per Instruction
system.cpu0.cpi_total                        0.873570                       # CPI: Total CPI of All Threads
system.cpu0.ipc                              1.144728                       # IPC: Instructions Per Cycle
system.cpu0.ipc_total                        1.144728                       # IPC: Total IPC of All Threads
system.cpu0.int_regfile_reads               117651723                       # number of integer regfile reads
system.cpu0.int_regfile_writes               62504561                       # number of integer regfile writes
system.cpu0.fp_regfile_reads                  2559415                       # number of floating regfile reads
system.cpu0.fp_regfile_writes                 1263033                       # number of floating regfile writes
system.cpu0.cc_regfile_reads                 41303074                       # number of cc regfile reads
system.cpu0.cc_regfile_writes                21518713                       # number of cc regfile writes
system.cpu0.misc_regfile_reads               35523756                       # number of misc regfile reads
system.cpu0.dcache.tags.pwrStateResidencyTicks::UNDEFINED  15267344125                       # Cumulative time (in ticks) in various power states
system.cpu0.dcache.tags.replacements            11430                       # number of replacements
system.cpu0.dcache.tags.tagsinuse                 512                       # Cycle average of tags in use
system.cpu0.dcache.tags.total_refs           19806983                       # Total number of references to valid blocks.
system.cpu0.dcache.tags.sampled_refs            11430                       # Sample count of references to valid blocks.
system.cpu0.dcache.tags.avg_refs          1732.894401                       # Average number of references to valid blocks.
system.cpu0.dcache.tags.warmup_cycle                0                       # Cycle when the warmup percentage was hit.
system.cpu0.dcache.tags.occ_blocks::cpu0.data          512                       # Average occupied blocks per requestor
system.cpu0.dcache.tags.occ_percent::cpu0.data            1                       # Average percentage of cache occupancy
system.cpu0.dcache.tags.occ_percent::total            1                       # Average percentage of cache occupancy
system.cpu0.dcache.tags.occ_task_id_blocks::1024          512                       # Occupied blocks per task id
system.cpu0.dcache.tags.age_task_id_blocks_1024::0            3                       # Occupied blocks per task id
system.cpu0.dcache.tags.age_task_id_blocks_1024::1           46                       # Occupied blocks per task id
system.cpu0.dcache.tags.age_task_id_blocks_1024::2          288                       # Occupied blocks per task id
system.cpu0.dcache.tags.age_task_id_blocks_1024::3           80                       # Occupied blocks per task id
system.cpu0.dcache.tags.age_task_id_blocks_1024::4           95                       # Occupied blocks per task id
system.cpu0.dcache.tags.occ_task_id_percent::1024            1                       # Percentage of cache occupancy per task id
system.cpu0.dcache.tags.tag_accesses         60329642                       # Number of tag accesses
system.cpu0.dcache.tags.data_accesses        60329642                       # Number of data accesses
system.cpu0.dcache.pwrStateResidencyTicks::UNDEFINED  15267344125                       # Cumulative time (in ticks) in various power states
system.cpu0.dcache.ReadReq_hits::cpu0.data      8566686                       # number of ReadReq hits
system.cpu0.dcache.ReadReq_hits::total        8566686                       # number of ReadReq hits
system.cpu0.dcache.WriteReq_hits::cpu0.data      6490421                       # number of WriteReq hits
system.cpu0.dcache.WriteReq_hits::total       6490421                       # number of WriteReq hits
system.cpu0.dcache.demand_hits::cpu0.data     15057107                       # number of demand (read+write) hits
system.cpu0.dcache.demand_hits::total        15057107                       # number of demand (read+write) hits
system.cpu0.dcache.overall_hits::cpu0.data     15057107                       # number of overall hits
system.cpu0.dcache.overall_hits::total       15057107                       # number of overall hits
system.cpu0.dcache.ReadReq_misses::cpu0.data        18787                       # number of ReadReq misses
system.cpu0.dcache.ReadReq_misses::total        18787                       # number of ReadReq misses
system.cpu0.dcache.WriteReq_misses::cpu0.data         3659                       # number of WriteReq misses
system.cpu0.dcache.WriteReq_misses::total         3659                       # number of WriteReq misses
system.cpu0.dcache.demand_misses::cpu0.data        22446                       # number of demand (read+write) misses
system.cpu0.dcache.demand_misses::total         22446                       # number of demand (read+write) misses
system.cpu0.dcache.overall_misses::cpu0.data        22446                       # number of overall misses
system.cpu0.dcache.overall_misses::total        22446                       # number of overall misses
system.cpu0.dcache.ReadReq_miss_latency::cpu0.data    240672500                       # number of ReadReq miss cycles
system.cpu0.dcache.ReadReq_miss_latency::total    240672500                       # number of ReadReq miss cycles
system.cpu0.dcache.WriteReq_miss_latency::cpu0.data    514430500                       # number of WriteReq miss cycles
system.cpu0.dcache.WriteReq_miss_latency::total    514430500                       # number of WriteReq miss cycles
system.cpu0.dcache.demand_miss_latency::cpu0.data    755103000                       # number of demand (read+write) miss cycles
system.cpu0.dcache.demand_miss_latency::total    755103000                       # number of demand (read+write) miss cycles
system.cpu0.dcache.overall_miss_latency::cpu0.data    755103000                       # number of overall miss cycles
system.cpu0.dcache.overall_miss_latency::total    755103000                       # number of overall miss cycles
system.cpu0.dcache.ReadReq_accesses::cpu0.data      8585473                       # number of ReadReq accesses(hits+misses)
system.cpu0.dcache.ReadReq_accesses::total      8585473                       # number of ReadReq accesses(hits+misses)
system.cpu0.dcache.WriteReq_accesses::cpu0.data      6494080                       # number of WriteReq accesses(hits+misses)
system.cpu0.dcache.WriteReq_accesses::total      6494080                       # number of WriteReq accesses(hits+misses)
system.cpu0.dcache.demand_accesses::cpu0.data     15079553                       # number of demand (read+write) accesses
system.cpu0.dcache.demand_accesses::total     15079553                       # number of demand (read+write) accesses
system.cpu0.dcache.overall_accesses::cpu0.data     15079553                       # number of overall (read+write) accesses
system.cpu0.dcache.overall_accesses::total     15079553                       # number of overall (read+write) accesses
system.cpu0.dcache.ReadReq_miss_rate::cpu0.data     0.002188                       # miss rate for ReadReq accesses
system.cpu0.dcache.ReadReq_miss_rate::total     0.002188                       # miss rate for ReadReq accesses
system.cpu0.dcache.WriteReq_miss_rate::cpu0.data     0.000563                       # miss rate for WriteReq accesses
system.cpu0.dcache.WriteReq_miss_rate::total     0.000563                       # miss rate for WriteReq accesses
system.cpu0.dcache.demand_miss_rate::cpu0.data     0.001489                       # miss rate for demand accesses
system.cpu0.dcache.demand_miss_rate::total     0.001489                       # miss rate for demand accesses
system.cpu0.dcache.overall_miss_rate::cpu0.data     0.001489                       # miss rate for overall accesses
system.cpu0.dcache.overall_miss_rate::total     0.001489                       # miss rate for overall accesses
system.cpu0.dcache.ReadReq_avg_miss_latency::cpu0.data 12810.587108                       # average ReadReq miss latency
system.cpu0.dcache.ReadReq_avg_miss_latency::total 12810.587108                       # average ReadReq miss latency
system.cpu0.dcache.WriteReq_avg_miss_latency::cpu0.data 140593.194862                       # average WriteReq miss latency
system.cpu0.dcache.WriteReq_avg_miss_latency::total 140593.194862                       # average WriteReq miss latency
system.cpu0.dcache.demand_avg_miss_latency::cpu0.data 33640.871425                       # average overall miss latency
system.cpu0.dcache.demand_avg_miss_latency::total 33640.871425                       # average overall miss latency
[...]
system.l2.WritebackClean_accesses::total        65943                       # number of WritebackClean accesses(hits+misses)
system.l2.UpgradeReq_accesses::cpu0.data            1                       # number of UpgradeReq accesses(hits+misses)
system.l2.UpgradeReq_accesses::total                1                       # number of UpgradeReq accesses(hits+misses)
system.l2.ReadExReq_accesses::cpu0.data          3640                       # number of ReadExReq accesses(hits+misses)
system.l2.ReadExReq_accesses::total              3640                       # number of ReadExReq accesses(hits+misses)
system.l2.ReadCleanReq_accesses::cpu0.inst        65943                       # number of ReadCleanReq accesses(hits+misses)
system.l2.ReadCleanReq_accesses::total          65943                       # number of ReadCleanReq accesses(hits+misses)
system.l2.ReadSharedReq_accesses::cpu0.data         7790                       # number of ReadSharedReq accesses(hits+misses)
system.l2.ReadSharedReq_accesses::total          7790                       # number of ReadSharedReq accesses(hits+misses)
system.l2.demand_accesses::cpu0.inst            65943                       # number of demand (read+write) accesses
system.l2.demand_accesses::cpu0.data            11430                       # number of demand (read+write) accesses
system.l2.demand_accesses::total                77373                       # number of demand (read+write) accesses
system.l2.overall_accesses::cpu0.inst           65943                       # number of overall (read+write) accesses
system.l2.overall_accesses::cpu0.data           11430                       # number of overall (read+write) accesses
system.l2.overall_accesses::total               77373                       # number of overall (read+write) accesses
system.l2.ReadExReq_miss_rate::cpu0.data     0.942308                       # miss rate for ReadExReq accesses
system.l2.ReadExReq_miss_rate::total         0.942308                       # miss rate for ReadExReq accesses
system.l2.ReadSharedReq_miss_rate::cpu0.data     0.002567                       # miss rate for ReadSharedReq accesses
system.l2.ReadSharedReq_miss_rate::total     0.002567                       # miss rate for ReadSharedReq accesses
system.l2.demand_miss_rate::cpu0.data        0.301837                       # miss rate for demand accesses
system.l2.demand_miss_rate::total            0.044589                       # miss rate for demand accesses
system.l2.overall_miss_rate::cpu0.data       0.301837                       # miss rate for overall accesses
system.l2.overall_miss_rate::total           0.044589                       # miss rate for overall accesses
system.l2.ReadExReq_avg_miss_latency::cpu0.data 146146.355685                       # average ReadExReq miss latency
system.l2.ReadExReq_avg_miss_latency::total 146146.355685                       # average ReadExReq miss latency
system.l2.ReadSharedReq_avg_miss_latency::cpu0.data        96950                       # average ReadSharedReq miss latency
system.l2.ReadSharedReq_avg_miss_latency::total        96950                       # average ReadSharedReq miss latency
system.l2.demand_avg_miss_latency::cpu0.data 145861.159420                       # average overall miss latency
system.l2.demand_avg_miss_latency::total 145861.159420                       # average overall miss latency
system.l2.overall_avg_miss_latency::cpu0.data 145861.159420                       # average overall miss latency
system.l2.overall_avg_miss_latency::total 145861.159420                       # average overall miss latency
system.l2.blocked_cycles::no_mshrs                  0                       # number of cycles access was blocked
system.l2.blocked_cycles::no_targets                0                       # number of cycles access was blocked
system.l2.blocked::no_mshrs                         0                       # number of cycles access was blocked
system.l2.blocked::no_targets                       0                       # number of cycles access was blocked
system.l2.avg_blocked_cycles::no_mshrs            nan                       # average number of cycles each access was blocked
system.l2.avg_blocked_cycles::no_targets          nan                       # average number of cycles each access was blocked
system.l2.writebacks::writebacks                 1207                       # number of writebacks
system.l2.writebacks::total                      1207                       # number of writebacks
system.l2.ReadExReq_mshr_misses::cpu0.data         3430                       # number of ReadExReq MSHR misses
system.l2.ReadExReq_mshr_misses::total           3430                       # number of ReadExReq MSHR misses
system.l2.ReadSharedReq_mshr_misses::cpu0.data           20                       # number of ReadSharedReq MSHR misses
system.l2.ReadSharedReq_mshr_misses::total           20                       # number of ReadSharedReq MSHR misses
system.l2.demand_mshr_misses::cpu0.data          3450                       # number of demand (read+write) MSHR misses
system.l2.demand_mshr_misses::total              3450                       # number of demand (read+write) MSHR misses
system.l2.overall_mshr_misses::cpu0.data         3450                       # number of overall MSHR misses
system.l2.overall_mshr_misses::total             3450                       # number of overall MSHR misses
system.l2.ReadExReq_mshr_miss_latency::cpu0.data    466982000                       # number of ReadExReq MSHR miss cycles
system.l2.ReadExReq_mshr_miss_latency::total    466982000                       # number of ReadExReq MSHR miss cycles
system.l2.ReadSharedReq_mshr_miss_latency::cpu0.data      1739000                       # number of ReadSharedReq MSHR miss cycles
system.l2.ReadSharedReq_mshr_miss_latency::total      1739000                       # number of ReadSharedReq MSHR miss cycles
system.l2.demand_mshr_miss_latency::cpu0.data    468721000                       # number of demand (read+write) MSHR miss cycles
system.l2.demand_mshr_miss_latency::total    468721000                       # number of demand (read+write) MSHR miss cycles
system.l2.overall_mshr_miss_latency::cpu0.data    468721000                       # number of overall MSHR miss cycles
system.l2.overall_mshr_miss_latency::total    468721000                       # number of overall MSHR miss cycles
system.l2.ReadExReq_mshr_miss_rate::cpu0.data     0.942308                       # mshr miss rate for ReadExReq accesses
system.l2.ReadExReq_mshr_miss_rate::total     0.942308                       # mshr miss rate for ReadExReq accesses
system.l2.ReadSharedReq_mshr_miss_rate::cpu0.data     0.002567                       # mshr miss rate for ReadSharedReq accesses
system.l2.ReadSharedReq_mshr_miss_rate::total     0.002567                       # mshr miss rate for ReadSharedReq accesses
system.l2.demand_mshr_miss_rate::cpu0.data     0.301837                       # mshr miss rate for demand accesses
system.l2.demand_mshr_miss_rate::total       0.044589                       # mshr miss rate for demand accesses
system.l2.overall_mshr_miss_rate::cpu0.data     0.301837                       # mshr miss rate for overall accesses
system.l2.overall_mshr_miss_rate::total      0.044589                       # mshr miss rate for overall accesses
system.l2.ReadExReq_avg_mshr_miss_latency::cpu0.data 136146.355685                       # average ReadExReq mshr miss latency
system.l2.ReadExReq_avg_mshr_miss_latency::total 136146.355685                       # average ReadExReq mshr miss latency
system.l2.ReadSharedReq_avg_mshr_miss_latency::cpu0.data        86950                       # average ReadSharedReq mshr miss latency
system.l2.ReadSharedReq_avg_mshr_miss_latency::total        86950                       # average ReadSharedReq mshr miss latency
system.l2.demand_avg_mshr_miss_latency::cpu0.data 135861.159420                       # average overall mshr miss latency
system.l2.demand_avg_mshr_miss_latency::total 135861.159420                       # average overall mshr miss latency
system.l2.overall_avg_mshr_miss_latency::cpu0.data 135861.159420                       # average overall mshr miss latency
system.l2.overall_avg_mshr_miss_latency::total 135861.159420                       # average overall mshr miss latency
system.membus.snoop_filter.tot_requests          4845                       # Total number of requests made to the snoop filter.
system.membus.snoop_filter.hit_single_requests         1395                       # Number of requests hitting in the snoop filter with a single holder of the requested data.
system.membus.snoop_filter.hit_multi_requests            0                       # Number of requests hitting in the snoop filter with multiple (>1) holders of the requested data.
system.membus.snoop_filter.tot_snoops               0                       # Total number of snoops made to the snoop filter.
system.membus.snoop_filter.hit_single_snoops            0                       # Number of snoops hitting in the snoop filter with a single holder of the requested data.
system.membus.snoop_filter.hit_multi_snoops            0                       # Number of snoops hitting in the snoop filter with multiple (>1) holders of the requested data.
system.membus.pwrStateResidencyTicks::UNDEFINED  15267344125                       # Cumulative time (in ticks) in various power states
system.membus.trans_dist::ReadResp                 20                       # Transaction distribution
system.membus.trans_dist::WritebackDirty         1207                       # Transaction distribution
system.membus.trans_dist::CleanEvict              188                       # Transaction distribution
system.membus.trans_dist::ReadExReq              3430                       # Transaction distribution
system.membus.trans_dist::ReadExResp             3430                       # Transaction distribution
system.membus.trans_dist::ReadSharedReq            20                       # Transaction distribution
system.membus.pkt_count_system.l2.mem_side::system.mem_ctrls.port         8295                       # Packet count per connected master and slave (bytes)
system.membus.pkt_count_system.l2.mem_side::total         8295                       # Packet count per connected master and slave (bytes)
system.membus.pkt_count::total                   8295                       # Packet count per connected master and slave (bytes)
system.membus.pkt_size_system.l2.mem_side::system.mem_ctrls.port       298048                       # Cumulative packet size per connected master and slave (bytes)
system.membus.pkt_size_system.l2.mem_side::total       298048                       # Cumulative packet size per connected master and slave (bytes)
system.membus.pkt_size::total                  298048                       # Cumulative packet size per connected master and slave (bytes)
system.membus.snoops                                0                       # Total snoops (count)
system.membus.snoopTraffic                          0                       # Total snoop traffic (bytes)
system.membus.snoop_fanout::samples              3450                       # Request fanout histogram
system.membus.snoop_fanout::mean                    0                       # Request fanout histogram
system.membus.snoop_fanout::stdev                   0                       # Request fanout histogram
system.membus.snoop_fanout::underflows              0      0.00%      0.00% # Request fanout histogram
system.membus.snoop_fanout::0                    3450    100.00%    100.00% # Request fanout histogram
system.membus.snoop_fanout::1                       0      0.00%    100.00% # Request fanout histogram
system.membus.snoop_fanout::overflows               0      0.00%    100.00% # Request fanout histogram
system.membus.snoop_fanout::min_value               0                       # Request fanout histogram
system.membus.snoop_fanout::max_value               0                       # Request fanout histogram
system.membus.snoop_fanout::total                3450                       # Request fanout histogram
system.membus.reqLayer12.occupancy           10552000                       # Layer occupancy (ticks)
system.membus.reqLayer12.utilization              0.1                       # Layer utilization (%)
system.membus.respLayer1.occupancy           18962750                       # Layer occupancy (ticks)
system.membus.respLayer1.utilization              0.1                       # Layer utilization (%)
system.tol2bus.snoop_filter.tot_requests       154748                       # Total number of requests made to the snoop filter.
system.tol2bus.snoop_filter.hit_single_requests        77373                       # Number of requests hitting in the snoop filter with a single holder of the requested data.
system.tol2bus.snoop_filter.hit_multi_requests           25                       # Number of requests hitting in the snoop filter with multiple (>1) holders of the requested data.
system.tol2bus.snoop_filter.tot_snoops             11                       # Total number of snoops made to the snoop filter.
system.tol2bus.snoop_filter.hit_single_snoops           11                       # Number of snoops hitting in the snoop filter with a single holder of the requested data.
system.tol2bus.snoop_filter.hit_multi_snoops            0                       # Number of snoops hitting in the snoop filter with multiple (>1) holders of the requested data.
system.tol2bus.pwrStateResidencyTicks::UNDEFINED  15267344125                       # Cumulative time (in ticks) in various power states
system.tol2bus.trans_dist::ReadResp             73734                       # Transaction distribution
system.tol2bus.trans_dist::WritebackDirty         9542                       # Transaction distribution
system.tol2bus.trans_dist::WritebackClean        65943                       # Transaction distribution
system.tol2bus.trans_dist::CleanEvict            3294                       # Transaction distribution
system.tol2bus.trans_dist::UpgradeReq               1                       # Transaction distribution
system.tol2bus.trans_dist::UpgradeResp              1                       # Transaction distribution
system.tol2bus.trans_dist::ReadExReq             3640                       # Transaction distribution
system.tol2bus.trans_dist::ReadExResp            3640                       # Transaction distribution
system.tol2bus.trans_dist::ReadCleanReq         65944                       # Transaction distribution
system.tol2bus.trans_dist::ReadSharedReq         7790                       # Transaction distribution
system.tol2bus.pkt_count_system.cpu0.icache.mem_side::system.l2.cpu_side       197830                       # Packet count per connected master and slave (bytes)
system.tol2bus.pkt_count_system.cpu0.dcache.mem_side::system.l2.cpu_side        34292                       # Packet count per connected master and slave (bytes)
system.tol2bus.pkt_count::total                232122                       # Packet count per connected master and slave (bytes)
system.tol2bus.pkt_size_system.cpu0.icache.mem_side::system.l2.cpu_side      8440704                       # Cumulative packet size per connected master and slave (bytes)
system.tol2bus.pkt_size_system.cpu0.dcache.mem_side::system.l2.cpu_side      1264960                       # Cumulative packet size per connected master and slave (bytes)
system.tol2bus.pkt_size::total                9705664                       # Cumulative packet size per connected master and slave (bytes)
system.tol2bus.snoops                            1407                       # Total snoops (count)
system.tol2bus.snoopTraffic                     77312                       # Total snoop traffic (bytes)
system.tol2bus.snoop_fanout::samples            78781                       # Request fanout histogram
system.tol2bus.snoop_fanout::mean            0.000457                       # Request fanout histogram
system.tol2bus.snoop_fanout::stdev           0.021372                       # Request fanout histogram
system.tol2bus.snoop_fanout::underflows             0      0.00%      0.00% # Request fanout histogram
system.tol2bus.snoop_fanout::0                  78745     99.95%     99.95% # Request fanout histogram
system.tol2bus.snoop_fanout::1                     36      0.05%    100.00% # Request fanout histogram
system.tol2bus.snoop_fanout::2                      0      0.00%    100.00% # Request fanout histogram
system.tol2bus.snoop_fanout::3                      0      0.00%    100.00% # Request fanout histogram
system.tol2bus.snoop_fanout::4                      0      0.00%    100.00% # Request fanout histogram
system.tol2bus.snoop_fanout::5                      0      0.00%    100.00% # Request fanout histogram
system.tol2bus.snoop_fanout::6                      0      0.00%    100.00% # Request fanout histogram
system.tol2bus.snoop_fanout::7                      0      0.00%    100.00% # Request fanout histogram
system.tol2bus.snoop_fanout::8                      0      0.00%    100.00% # Request fanout histogram
system.tol2bus.snoop_fanout::9                      0      0.00%    100.00% # Request fanout histogram
system.tol2bus.snoop_fanout::10                     0      0.00%    100.00% # Request fanout histogram
system.tol2bus.snoop_fanout::11                     0      0.00%    100.00% # Request fanout histogram
system.tol2bus.snoop_fanout::12                     0      0.00%    100.00% # Request fanout histogram
system.tol2bus.snoop_fanout::13                     0      0.00%    100.00% # Request fanout histogram
system.tol2bus.snoop_fanout::14                     0      0.00%    100.00% # Request fanout histogram
system.tol2bus.snoop_fanout::15                     0      0.00%    100.00% # Request fanout histogram
system.tol2bus.snoop_fanout::16                     0      0.00%    100.00% # Request fanout histogram
system.tol2bus.snoop_fanout::17                     0      0.00%    100.00% # Request fanout histogram
system.tol2bus.snoop_fanout::18                     0      0.00%    100.00% # Request fanout histogram
system.tol2bus.snoop_fanout::19                     0      0.00%    100.00% # Request fanout histogram
system.tol2bus.snoop_fanout::20                     0      0.00%    100.00% # Request fanout histogram
system.tol2bus.snoop_fanout::21                     0      0.00%    100.00% # Request fanout histogram
system.tol2bus.snoop_fanout::22                     0      0.00%    100.00% # Request fanout histogram
system.tol2bus.snoop_fanout::23                     0      0.00%    100.00% # Request fanout histogram
system.tol2bus.snoop_fanout::24                     0      0.00%    100.00% # Request fanout histogram
system.tol2bus.snoop_fanout::overflows              0      0.00%    100.00% # Request fanout histogram
system.tol2bus.snoop_fanout::min_value              0                       # Request fanout histogram
system.tol2bus.snoop_fanout::max_value              1                       # Request fanout histogram
system.tol2bus.snoop_fanout::total              78781                       # Request fanout histogram
system.tol2bus.reqLayer0.occupancy          151652000                       # Layer occupancy (ticks)
system.tol2bus.reqLayer0.utilization              1.0                       # Layer utilization (%)
system.tol2bus.respLayer0.occupancy          98919493                       # Layer occupancy (ticks)
system.tol2bus.respLayer0.utilization             0.6                       # Layer utilization (%)
system.tol2bus.respLayer1.occupancy          17154981                       # Layer occupancy (ticks)
system.tol2bus.respLayer1.utilization             0.1                       # Layer utilization (%)

---------- End Simulation Statistics   ----------
