
---------- Begin Simulation Statistics ----------
sim_seconds                                  0.015267                       # Number of seconds simulated
sim_ticks                                 15267344125                       # Number of ticks simulated
final_tick                               4687074646375                       # Number of ticks from beginning of simulation (restored from checkpoints and never reset)
sim_freq                                 1000000000000                       # Frequency of simulated ticks
host_inst_rate                               58240217                       # Simulator instruction rate (inst/s)
host_op_rate                                109057627                       # Simulator op (including micro ops) rate (op/s)
host_tick_rate                              139930495                       # Simulator tick rate (ticks/s)
host_mem_usage                                3428952                       # Number of bytes of host memory used
host_seconds                                   109.11                       # Real time elapsed on the host
sim_insts                                  6354392487                       # Number of instructions simulated
sim_ops                                   11898908668                       # Number of ops (including micro ops) simulated
system.voltage_domain.voltage                       1                       # Voltage in Volts
system.clk_domain.clock                          1000                       # Clock period in ticks
system.mem_ctrls.pwrStateResidencyTicks::UNDEFINED  15267344125                       # Cumulative time (in ticks) in various power states
system.mem_ctrls.bytes_read::cpu0.inst            128                       # Number of bytes read from this memory
system.mem_ctrls.bytes_read::cpu0.data       10261312                       # Number of bytes read from this memory
system.mem_ctrls.bytes_read::total           10261440                       # Number of bytes read from this memory
system.mem_ctrls.bytes_inst_read::cpu0.inst          128                       # Number of instructions bytes read from this memory
system.mem_ctrls.bytes_inst_read::total           128                       # Number of instructions bytes read from this memory
system.mem_ctrls.bytes_written::writebacks      8298944                       # Number of bytes written to this memory
system.mem_ctrls.bytes_written::total         8298944                       # Number of bytes written to this memory
system.mem_ctrls.num_reads::cpu0.inst               2                       # Number of read requests responded to by this memory
system.mem_ctrls.num_reads::cpu0.data          160333                       # Number of read requests responded to by this memory
system.mem_ctrls.num_reads::total              160335                       # Number of read requests responded to by this memory
system.mem_ctrls.num_writes::writebacks        129671                       # Number of write requests responded to by this memory
system.mem_ctrls.num_writes::total             129671                       # Number of write requests responded to by this memory
system.mem_ctrls.bw_read::cpu0.inst              8384                       # Total read bandwidth from this memory (bytes/s)
system.mem_ctrls.bw_read::cpu0.data         672108516                       # Total read bandwidth from this memory (bytes/s)
system.mem_ctrls.bw_read::total             672116900                       # Total read bandwidth from this memory (bytes/s)
system.mem_ctrls.bw_inst_read::cpu0.inst         8384                       # Instruction read bandwidth from this memory (bytes/s)
system.mem_ctrls.bw_inst_read::total             8384                       # Instruction read bandwidth from this memory (bytes/s)
system.mem_ctrls.bw_write::writebacks       543574831                       # Write bandwidth from this memory (bytes/s)
system.mem_ctrls.bw_write::total            543574831                       # Write bandwidth from this memory (bytes/s)
system.mem_ctrls.bw_total::writebacks       543574831                       # Total bandwidth to/from this memory (bytes/s)
system.mem_ctrls.bw_total::cpu0.inst             8384                       # Total bandwidth to/from this memory (bytes/s)
system.mem_ctrls.bw_total::cpu0.data        672108516                       # Total bandwidth to/from this memory (bytes/s)
system.mem_ctrls.bw_total::total           1215691731                       # Total bandwidth to/from this memory (bytes/s)
system.mem_ctrls.readReqs                      160335                       # Number of read requests accepted
system.mem_ctrls.writeReqs                     129671                       # Number of write requests accepted
system.mem_ctrls.readBursts                    160335                       # Number of DRAM read bursts, including those serviced by the write queue
system.mem_ctrls.writeBursts                   129671                       # Number of DRAM write bursts, including those merged in the write queue
system.mem_ctrls.bytesReadDRAM               10260800                       # Total number of bytes read from DRAM
system.mem_ctrls.bytesReadWrQ                     640                       # Total number of bytes read from write queue
system.mem_ctrls.bytesWritten                 8299008                       # Total number of bytes written to DRAM
system.mem_ctrls.bytesReadSys                10261440                       # Total read bytes from the system interface side
system.mem_ctrls.bytesWrittenSys              8298944                       # Total written bytes from the system interface side
system.mem_ctrls.servicedByWrQ                     10                       # Number of DRAM read bursts serviced by the write queue
system.mem_ctrls.mergedWrBursts                     0                       # Number of DRAM write bursts merged with an existing one
system.mem_ctrls.neitherReadNorWriteReqs            0                       # Number of requests that are neither read nor write
system.mem_ctrls.perBankRdBursts::0              9992                       # Per bank write bursts
system.mem_ctrls.perBankRdBursts::1             10036                       # Per bank write bursts
system.mem_ctrls.perBankRdBursts::2             10044                       # Per bank write bursts
system.mem_ctrls.perBankRdBursts::3             10088                       # Per bank write bursts
system.mem_ctrls.perBankRdBursts::4             10018                       # Per bank write bursts
system.mem_ctrls.perBankRdBursts::5             10049                       # Per bank write bursts
system.mem_ctrls.perBankRdBursts::6             10009                       # Per bank write bursts
system.mem_ctrls.perBankRdBursts::7              9823                       # Per bank write bursts
system.mem_ctrls.perBankRdBursts::8              9972                       # Per bank write bursts
system.mem_ctrls.perBankRdBursts::9              9874                       # Per bank write bursts
system.mem_ctrls.perBankRdBursts::10             9875                       # Per bank write bursts
system.mem_ctrls.perBankRdBursts::11             9933                       # Per bank write bursts
system.mem_ctrls.perBankRdBursts::12            10181                       # Per bank write bursts
system.mem_ctrls.perBankRdBursts::13            10109                       # Per bank write bursts
system.mem_ctrls.perBankRdBursts::14            10144                       # Per bank write bursts
system.mem_ctrls.perBankRdBursts::15            10178                       # Per bank write bursts
system.mem_ctrls.perBankWrBursts::0              8122                       # Per bank write bursts
system.mem_ctrls.perBankWrBursts::1              8115                       # Per bank write bursts
system.mem_ctrls.perBankWrBursts::2              8134                       # Per bank write bursts
system.mem_ctrls.perBankWrBursts::3              8154                       # Per bank write bursts
system.mem_ctrls.perBankWrBursts::4              8038                       # Per bank write bursts
system.mem_ctrls.perBankWrBursts::5              8089                       # Per bank write bursts
system.mem_ctrls.perBankWrBursts::6              8088                       # Per bank write bursts
system.mem_ctrls.perBankWrBursts::7              7958                       # Per bank write bursts
system.mem_ctrls.perBankWrBursts::8              8059                       # Per bank write bursts
system.mem_ctrls.perBankWrBursts::9              8020                       # Per bank write bursts
system.mem_ctrls.perBankWrBursts::10             7987                       # Per bank write bursts
system.mem_ctrls.perBankWrBursts::11             8075                       # Per bank write bursts
system.mem_ctrls.perBankWrBursts::12             8172                       # Per bank write bursts
system.mem_ctrls.perBankWrBursts::13             8171                       # Per bank write bursts
system.mem_ctrls.perBankWrBursts::14             8255                       # Per bank write bursts
system.mem_ctrls.perBankWrBursts::15             8235                       # Per bank write bursts
system.mem_ctrls.numRdRetry                         0                       # Number of times read queue was full causing retry
system.mem_ctrls.numWrRetry                         0                       # Number of times write queue was full causing retry
system.mem_ctrls.totGap                   15267825000                       # Total gap between requests
system.mem_ctrls.readPktSize::0                     0                       # Read request sizes (log2)
system.mem_ctrls.readPktSize::1                     0                       # Read request sizes (log2)
system.mem_ctrls.readPktSize::2                     0                       # Read request sizes (log2)
system.mem_ctrls.readPktSize::3                     0                       # Read request sizes (log2)
system.mem_ctrls.readPktSize::4                     0                       # Read request sizes (log2)
system.mem_ctrls.readPktSize::5                     0                       # Read request sizes (log2)
system.mem_ctrls.readPktSize::6                160335                       # Read request sizes (log2)
system.mem_ctrls.writePktSize::0                    0                       # Write request sizes (log2)
system.mem_ctrls.writePktSize::1                    0                       # Write request sizes (log2)
system.mem_ctrls.writePktSize::2                    0                       # Write request sizes (log2)
system.mem_ctrls.writePktSize::3                    0                       # Write request sizes (log2)
system.mem_ctrls.writePktSize::4                    0                       # Write request sizes (log2)
system.mem_ctrls.writePktSize::5                    0                       # Write request sizes (log2)
system.mem_ctrls.writePktSize::6               129671                       # Write request sizes (log2)
system.mem_ctrls.rdQLenPdf::0                  129711                       # What read queue length does an incoming req see
system.mem_ctrls.rdQLenPdf::1                   29433                       # What read queue length does an incoming req see
system.mem_ctrls.rdQLenPdf::2                    1180                       # What read queue length does an incoming req see
system.mem_ctrls.rdQLenPdf::3                       1                       # What read queue length does an incoming req see
system.mem_ctrls.rdQLenPdf::4                       0                       # What read queue length does an incoming req see
system.mem_ctrls.rdQLenPdf::5                       0                       # What read queue length does an incoming req see
system.mem_ctrls.rdQLenPdf::6                       0                       # What read queue length does an incoming req see
system.mem_ctrls.rdQLenPdf::7                       0                       # What read queue length does an incoming req see
system.mem_ctrls.rdQLenPdf::8                       0                       # What read queue length does an incoming req see
system.mem_ctrls.rdQLenPdf::9                       0                       # What read queue length does an incoming req see
system.mem_ctrls.rdQLenPdf::10                      0                       # What read queue length does an incoming req see
system.mem_ctrls.rdQLenPdf::11                      0                       # What read queue length does an incoming req see
system.mem_ctrls.rdQLenPdf::12                      0                       # What read queue length does an incoming req see
system.mem_ctrls.rdQLenPdf::13                      0                       # What read queue length does an incoming req see
system.mem_ctrls.rdQLenPdf::14                      0                       # What read queue length does an incoming req see
system.mem_ctrls.rdQLenPdf::15                      0                       # What read queue length does an incoming req see
system.mem_ctrls.rdQLenPdf::16                      0                       # What read queue length does an incoming req see
system.mem_ctrls.rdQLenPdf::17                      0                       # What read queue length does an incoming req see
system.mem_ctrls.rdQLenPdf::18                      0                       # What read queue length does an incoming req see
system.mem_ctrls.rdQLenPdf::19                      0                       # What read queue length does an incoming req see
system.mem_ctrls.rdQLenPdf::20                      0                       # What read queue length does an incoming req see
system.mem_ctrls.rdQLenPdf::21                      0                       # What read queue length does an incoming req see
system.mem_ctrls.rdQLenPdf::22                      0                       # What read queue length does an incoming req see
system.mem_ctrls.rdQLenPdf::23                      0                       # What read queue length does an incoming req see
system.mem_ctrls.rdQLenPdf::24                      0                       # What read queue length does an incoming req see
system.mem_ctrls.rdQLenPdf::25                      0                       # What read queue length does an incoming req see
system.mem_ctrls.rdQLenPdf::26                      0                       # What read queue length does an incoming req see
system.mem_ctrls.rdQLenPdf::27                      0                       # What read queue length does an incoming req see
system.mem_ctrls.rdQLenPdf::28                      0                       # What read queue length does an incoming req see
system.mem_ctrls.rdQLenPdf::29                      0                       # What read queue length does an incoming req see
system.mem_ctrls.rdQLenPdf::30                      0                       # What read queue length does an incoming req see
system.mem_ctrls.rdQLenPdf::31                      0                       # What read queue length does an incoming req see
system.mem_ctrls.wrQLenPdf::0                       0                       # What write queue length does an incoming req see
system.mem_ctrls.wrQLenPdf::1                       0                       # What write queue length does an incoming req see
system.mem_ctrls.wrQLenPdf::2                       0                       # What write queue length does an incoming req see
system.mem_ctrls.wrQLenPdf::3                       0                       # What write queue length does an incoming req see
system.mem_ctrls.wrQLenPdf::4                       0                       # What write queue length does an incoming req see
system.mem_ctrls.wrQLenPdf::5                       0                       # What write queue length does an incoming req see
system.mem_ctrls.wrQLenPdf::6                       0                       # What write queue length does an incoming req see
system.mem_ctrls.wrQLenPdf::7                       0                       # What write queue length does an incoming req see
system.mem_ctrls.wrQLenPdf::8                       0                       # What write queue length does an incoming req see
system.mem_ctrls.wrQLenPdf::9                       0                       # What write queue length does an incoming req see
system.mem_ctrls.wrQLenPdf::10                      0                       # What write queue length does an incoming req see
system.mem_ctrls.wrQLenPdf::11                      0                       # What write queue length does an incoming req see
system.mem_ctrls.wrQLenPdf::12                      0                       # What write queue length does an incoming req see
system.mem_ctrls.wrQLenPdf::13                      0                       # What write queue length does an incoming req see
system.mem_ctrls.wrQLenPdf::14                      0                       # What write queue length does an incoming req see
system.mem_ctrls.wrQLenPdf::15                    217                       # What write queue length does an incoming req see
system.mem_ctrls.wrQLenPdf::16                    256                       # What write queue length does an incoming req see
system.mem_ctrls.wrQLenPdf::17                   6886                       # What write queue length does an incoming req see
system.mem_ctrls.wrQLenPdf::18                   8056                       # What write queue length does an incoming req see
system.mem_ctrls.wrQLenPdf::19                   8073                       # What write queue length does an incoming req see
system.mem_ctrls.wrQLenPdf::20                   8073                       # What write queue length does an incoming req see
system.mem_ctrls.wrQLenPdf::21                   8074                       # What write queue length does an incoming req see
system.mem_ctrls.wrQLenPdf::22                   8073                       # What write queue length does an incoming req see
system.mem_ctrls.wrQLenPdf::23                   8074                       # What write queue length does an incoming req see
system.mem_ctrls.wrQLenPdf::24                   8091                       # What write queue length does an incoming req see
system.mem_ctrls.wrQLenPdf::25                   8086                       # What write queue length does an incoming req see
system.mem_ctrls.wrQLenPdf::26                   8107                       # What write queue length does an incoming req see
system.mem_ctrls.wrQLenPdf::27                   8291                       # What write queue length does an incoming req see
system.mem_ctrls.wrQLenPdf::28                   8110                       # What write queue length does an incoming req see
system.mem_ctrls.wrQLenPdf::29                   8171                       # What write queue length does an incoming req see
system.mem_ctrls.wrQLenPdf::30                   8627                       # What write queue length does an incoming req see
system.mem_ctrls.wrQLenPdf::31                   8163                       # What write queue length does an incoming req see
system.mem_ctrls.wrQLenPdf::32                   8238                       # What write queue length does an incoming req see
system.mem_ctrls.wrQLenPdf::33                      5                       # What write queue length does an incoming req see
system.mem_ctrls.wrQLenPdf::34                      0                       # What write queue length does an incoming req see
system.mem_ctrls.wrQLenPdf::35                      0                       # What write queue length does an incoming req see
system.mem_ctrls.wrQLenPdf::36                      0                       # What write queue length does an incoming req see
system.mem_ctrls.wrQLenPdf::37                      0                       # What write queue length does an incoming req see
system.mem_ctrls.wrQLenPdf::38                      0                       # What write queue length does an incoming req see
system.mem_ctrls.wrQLenPdf::39                      0                       # What write queue length does an incoming req see
system.mem_ctrls.wrQLenPdf::40                      0                       # What write queue length does an incoming req see
system.mem_ctrls.wrQLenPdf::41                      0                       # What write queue length does an incoming req see
system.mem_ctrls.wrQLenPdf::42                      0                       # What write queue length does an incoming req see
system.mem_ctrls.wrQLenPdf::43                      0                       # What write queue length does an incoming req see
system.mem_ctrls.wrQLenPdf::44                      0                       # What write queue length does an incoming req see
system.mem_ctrls.wrQLenPdf::45                      0                       # What write queue length does an incoming req see
system.mem_ctrls.wrQLenPdf::46                      0                       # What write queue length does an incoming req see
system.mem_ctrls.wrQLenPdf::47                      0                       # What write queue length does an incoming req see
system.mem_ctrls.wrQLenPdf::48                      0                       # What write queue length does an incoming req see
system.mem_ctrls.wrQLenPdf::49                      0                       # What write queue length does an incoming req see
system.mem_ctrls.wrQLenPdf::50                      0                       # What write queue length does an incoming req see
system.mem_ctrls.wrQLenPdf::51                      0                       # What write queue length does an incoming req see
system.mem_ctrls.wrQLenPdf::52                      0                       # What write queue length does an incoming req see
system.mem_ctrls.wrQLenPdf::53                      0                       # What write queue length does an incoming req see
system.mem_ctrls.wrQLenPdf::54                      0                       # What write queue length does an incoming req see
system.mem_ctrls.wrQLenPdf::55                      0                       # What write queue length does an incoming req see
system.mem_ctrls.wrQLenPdf::56                      0                       # What write queue length does an incoming req see
system.mem_ctrls.wrQLenPdf::57                      0                       # What write queue length does an incoming req see
system.mem_ctrls.wrQLenPdf::58                      0                       # What write queue length does an incoming req see
system.mem_ctrls.wrQLenPdf::59                      0                       # What write queue length does an incoming req see
system.mem_ctrls.wrQLenPdf::60                      0                       # What write queue length does an incoming req see
system.mem_ctrls.wrQLenPdf::61                      0                       # What write queue length does an incoming req see
system.mem_ctrls.wrQLenPdf::62                      0                       # What write queue length does an incoming req see
system.mem_ctrls.wrQLenPdf::63                      0                       # What write queue length does an incoming req see
system.mem_ctrls.bytesPerActivate::samples       131312                       # Bytes accessed per row activation
system.mem_ctrls.bytesPerActivate::mean    141.337882                       # Bytes accessed per row activation
system.mem_ctrls.bytesPerActivate::gmean    96.786421                       # Bytes accessed per row activation
system.mem_ctrls.bytesPerActivate::stdev   195.349534                       # Bytes accessed per row activation
system.mem_ctrls.bytesPerActivate::0-127        86718     66.04%     66.04% # Bytes accessed per row activation
system.mem_ctrls.bytesPerActivate::128-255        29817     22.71%     88.75% # Bytes accessed per row activation
system.mem_ctrls.bytesPerActivate::256-383         5898      4.49%     93.24% # Bytes accessed per row activation
system.mem_ctrls.bytesPerActivate::384-511         1881      1.43%     94.67% # Bytes accessed per row activation
system.mem_ctrls.bytesPerActivate::512-639          896      0.68%     95.35% # Bytes accessed per row activation
system.mem_ctrls.bytesPerActivate::640-767          691      0.53%     95.88% # Bytes accessed per row activation
system.mem_ctrls.bytesPerActivate::768-895          587      0.45%     96.33% # Bytes accessed per row activation
system.mem_ctrls.bytesPerActivate::896-1023          906      0.69%     97.02% # Bytes accessed per row activation
system.mem_ctrls.bytesPerActivate::1024-1151         3918      2.98%    100.00% # Bytes accessed per row activation
system.mem_ctrls.bytesPerActivate::total       131312                       # Bytes accessed per row activation
system.mem_ctrls.rdPerTurnAround::samples         8072                       # Reads before turning the bus around for writes
system.mem_ctrls.rdPerTurnAround::mean      19.863479                       # Reads before turning the bus around for writes
system.mem_ctrls.rdPerTurnAround::gmean     19.422217                       # Reads before turning the bus around for writes
system.mem_ctrls.rdPerTurnAround::stdev      4.641310                       # Reads before turning the bus around for writes
system.mem_ctrls.rdPerTurnAround::14-15           370      4.58%      4.58% # Reads before turning the bus around for writes
system.mem_ctrls.rdPerTurnAround::16-17          2807     34.77%     39.36% # Reads before turning the bus around for writes
system.mem_ctrls.rdPerTurnAround::18-19          1633     20.23%     59.59% # Reads before turning the bus around for writes
system.mem_ctrls.rdPerTurnAround::20-21          1180     14.62%     74.21% # Reads before turning the bus around for writes
system.mem_ctrls.rdPerTurnAround::22-23           795      9.85%     84.06% # Reads before turning the bus around for writes
system.mem_ctrls.rdPerTurnAround::24-25           456      5.65%     89.71% # Reads before turning the bus around for writes
system.mem_ctrls.rdPerTurnAround::26-27           274      3.39%     93.10% # Reads before turning the bus around for writes
system.mem_ctrls.rdPerTurnAround::28-29           161      1.99%     95.09% # Reads before turning the bus around for writes
system.mem_ctrls.rdPerTurnAround::30-31           128      1.59%     96.68% # Reads before turning the bus around for writes
system.mem_ctrls.rdPerTurnAround::32-33            98      1.21%     97.89% # Reads before turning the bus around for writes
system.mem_ctrls.rdPerTurnAround::34-35            57      0.71%     98.60% # Reads before turning the bus around for writes
system.mem_ctrls.rdPerTurnAround::36-37            42      0.52%     99.12% # Reads before turning the bus around for writes
system.mem_ctrls.rdPerTurnAround::38-39            22      0.27%     99.39% # Reads before turning the bus around for writes
system.mem_ctrls.rdPerTurnAround::40-41            22      0.27%     99.67% # Reads before turning the bus around for writes
system.mem_ctrls.rdPerTurnAround::42-43            13      0.16%     99.83% # Reads before turning the bus around for writes
system.mem_ctrls.rdPerTurnAround::44-45             4      0.05%     99.88% # Reads before turning the bus around for writes
system.mem_ctrls.rdPerTurnAround::46-47             5      0.06%     99.94% # Reads before turning the bus around for writes
system.mem_ctrls.rdPerTurnAround::48-49             2      0.02%     99.96% # Reads before turning the bus around for writes
system.mem_ctrls.rdPerTurnAround::50-51             1      0.01%     99.98% # Reads before turning the bus around for writes
system.mem_ctrls.rdPerTurnAround::58-59             1      0.01%     99.99% # Reads before turning the bus around for writes
system.mem_ctrls.rdPerTurnAround::62-63             1      0.01%    100.00% # Reads before turning the bus around for writes
system.mem_ctrls.rdPerTurnAround::total          8072                       # Reads before turning the bus around for writes
system.mem_ctrls.wrPerTurnAround::samples         8072                       # Writes before turning the bus around for reads
system.mem_ctrls.wrPerTurnAround::mean      16.064420                       # Writes before turning the bus around for reads
system.mem_ctrls.wrPerTurnAround::gmean     16.060686                       # Writes before turning the bus around for reads
system.mem_ctrls.wrPerTurnAround::stdev      0.360774                       # Writes before turning the bus around for reads
system.mem_ctrls.wrPerTurnAround::16             7805     96.69%     96.69% # Writes before turning the bus around for reads
system.mem_ctrls.wrPerTurnAround::17               43      0.53%     97.22% # Writes before turning the bus around for reads
system.mem_ctrls.wrPerTurnAround::18              195      2.42%     99.64% # Writes before turning the bus around for reads
system.mem_ctrls.wrPerTurnAround::19               29      0.36%    100.00% # Writes before turning the bus around for reads
system.mem_ctrls.wrPerTurnAround::total          8072                       # Writes before turning the bus around for reads
system.mem_ctrls.totQLat                   3948420750                       # Total ticks spent queuing
system.mem_ctrls.totMemAccLat              6954514500                       # Total ticks spent from burst creation until serviced by the DRAM
system.mem_ctrls.totBusLat                  801625000                       # Total ticks spent in databus transfers
system.mem_ctrls.avgQLat                     24627.60                       # Average queueing delay per DRAM burst
system.mem_ctrls.avgBusLat                    5000.00                       # Average bus latency per DRAM burst
system.mem_ctrls.avgMemAccLat                43377.60                       # Average memory access latency per DRAM burst
system.mem_ctrls.avgRdBW                       672.07                       # Average DRAM read bandwidth in MiByte/s
system.mem_ctrls.avgWrBW                       543.58                       # Average achieved write bandwidth in MiByte/s
system.mem_ctrls.avgRdBWSys                    672.12                       # Average system read bandwidth in MiByte/s
system.mem_ctrls.avgWrBWSys                    543.57                       # Average system write bandwidth in MiByte/s
system.mem_ctrls.peakBW                      12800.00                       # Theoretical peak bandwidth in MiByte/s
system.mem_ctrls.busUtil                         9.50                       # Data bus utilization in percentage
system.mem_ctrls.busUtilRead                     5.25                       # Data bus utilization in percentage for reads
system.mem_ctrls.busUtilWrite                    4.25                       # Data bus utilization in percentage for writes
system.mem_ctrls.avgRdQLen                       1.23                       # Average read queue length when enqueuing
system.mem_ctrls.avgWrQLen                      26.05                       # Average write queue length when enqueuing
system.mem_ctrls.readRowHits                   102105                       # Number of row buffer hits during reads
system.mem_ctrls.writeRowHits                   56588                       # Number of row buffer hits during writes
system.mem_ctrls.readRowHitRate                 63.69                       # Row buffer hit rate for reads
system.mem_ctrls.writeRowHitRate                43.64                       # Row buffer hit rate for writes
system.mem_ctrls.avgGap                      52646.58                       # Average gap between requests
system.mem_ctrls.pageHitRate                    54.72                       # Row buffer hit rate, read and write combined
system.mem_ctrls_0.actEnergy                467477220                       # Energy for activate commands per rank (pJ)
system.mem_ctrls_0.preEnergy                248489010                       # Energy for precharge commands per rank (pJ)
system.mem_ctrls_0.readEnergy               571621260                       # Energy for read commands per rank (pJ)
system.mem_ctrls_0.writeEnergy              337723560                       # Energy for write commands per rank (pJ)
system.mem_ctrls_0.refreshEnergy         1098361680.000000                       # Energy for refresh commands per rank (pJ)
system.mem_ctrls_0.actBackEnergy           2299454670                       # Energy for active background per rank (pJ)
system.mem_ctrls_0.preBackEnergy             41570880                       # Energy for precharge background per rank (pJ)
system.mem_ctrls_0.actPowerDownEnergy      3348285450                       # Energy for active power-down per rank (pJ)
system.mem_ctrls_0.prePowerDownEnergy       335592000                       # Energy for precharge power-down per rank (pJ)
system.mem_ctrls_0.selfRefreshEnergy        497911440                       # Energy for self refresh per rank (pJ)
system.mem_ctrls_0.totalEnergy             9246487170                       # Total energy per rank (pJ)
system.mem_ctrls_0.averagePower            605.638223                       # Core power per rank (mW)
system.mem_ctrls_0.totalIdleTime          10079362250                       # Total Idle time Per DRAM Rank
system.mem_ctrls_0.memoryStateTime::IDLE     33781750                       # Time in different power states
system.mem_ctrls_0.memoryStateTime::REF     465088000                       # Time in different power states
system.mem_ctrls_0.memoryStateTime::SREF   1899757875                       # Time in different power states
system.mem_ctrls_0.memoryStateTime::PRE_PDN    873932500                       # Time in different power states
system.mem_ctrls_0.memoryStateTime::ACT    4651919750                       # Time in different power states
system.mem_ctrls_0.memoryStateTime::ACT_PDN   7342864250                       # Time in different power states
system.mem_ctrls_1.actEnergy                470033340                       # Energy for activate commands per rank (pJ)
system.mem_ctrls_1.preEnergy                249840030                       # Energy for precharge commands per rank (pJ)
system.mem_ctrls_1.readEnergy               573099240                       # Energy for read commands per rank (pJ)
system.mem_ctrls_1.writeEnergy              339164280                       # Energy for write commands per rank (pJ)
system.mem_ctrls_1.refreshEnergy         1097132400.000000                       # Energy for refresh commands per rank (pJ)
system.mem_ctrls_1.actBackEnergy           2272373970                       # Energy for active background per rank (pJ)
system.mem_ctrls_1.preBackEnergy             43772160                       # Energy for precharge background per rank (pJ)
system.mem_ctrls_1.actPowerDownEnergy      3388844370                       # Energy for active power-down per rank (pJ)
system.mem_ctrls_1.prePowerDownEnergy       317588160                       # Energy for precharge power-down per rank (pJ)
system.mem_ctrls_1.selfRefreshEnergy        500142000                       # Energy for self refresh per rank (pJ)
system.mem_ctrls_1.totalEnergy             9251989950                       # Total energy per rank (pJ)
system.mem_ctrls_1.averagePower            605.998651                       # Core power per rank (mW)
system.mem_ctrls_1.totalIdleTime          10170242750                       # Total Idle time Per DRAM Rank
system.mem_ctrls_1.memoryStateTime::IDLE     39034500                       # Time in different power states
system.mem_ctrls_1.memoryStateTime::REF     464562000                       # Time in different power states
system.mem_ctrls_1.memoryStateTime::SREF   1911348500                       # Time in different power states
system.mem_ctrls_1.memoryStateTime::PRE_PDN    827022500                       # Time in different power states
system.mem_ctrls_1.memoryStateTime::ACT    4593504250                       # Time in different power states
system.mem_ctrls_1.memoryStateTime::ACT_PDN   7431872375                       # Time in different power states
system.pwrStateResidencyTicks::UNDEFINED  15267344125                       # Cumulative time (in ticks) in various power states
system.cpu0.branchPred.lookups                3530117                       # Number of BP lookups
system.cpu0.branchPred.condPredicted          3530117                       # Number of conditional branches predicted
system.cpu0.branchPred.condIncorrect              223                       # Number of conditional branches incorrect
system.cpu0.branchPred.BTBLookups             3085586                       # Number of BTB lookups
system.cpu0.branchPred.BTBHits                      0                       # Number of BTB hits
system.cpu0.branchPred.BTBCorrect                   0                       # Number of correct BTB predictions (this stat may not work properly.
system.cpu0.branchPred.BTBHitPct             0.000000                       # BTB Hit Percentage
system.cpu0.branchPred.usedRAS                 215433                       # Number of times the RAS was used to get a target.
system.cpu0.branchPred.RASInCorrect                 2                       # Number of incorrect RAS predictions.
system.cpu0.branchPred.indirectLookups        3085586                       # Number of indirect predictor lookups.
system.cpu0.branchPred.indirectHits           1549492                       # Number of indirect target hits.
system.cpu0.branchPred.indirectMisses         1536094                       # Number of indirect misses.
system.cpu0.branchPredindirectMispredicted           43                       # Number of mispredicted indirect branches.
system.cpu_voltage_domain.voltage                   1                       # Voltage in Volts
system.cpu_clk_domain.clock                       500                       # Clock period in ticks
system.cpu0.dtb.walker.pwrStateResidencyTicks::UNDEFINED  15267344125                       # Cumulative time (in ticks) in various power states
system.cpu0.dtb.rdAccesses                    3649969                       # TLB accesses on read requests
system.cpu0.dtb.wrAccesses                    2572808                       # TLB accesses on write requests
system.cpu0.dtb.rdMisses                        87773                       # TLB misses on read requests
system.cpu0.dtb.wrMisses                            5                       # TLB misses on write requests
system.cpu0.apic_clk_domain.clock                8000                       # Clock period in ticks
system.cpu0.interrupts.pwrStateResidencyTicks::UNDEFINED  15267344125                       # Cumulative time (in ticks) in various power states
system.cpu0.itb.walker.pwrStateResidencyTicks::UNDEFINED  15267344125                       # Cumulative time (in ticks) in various power states
system.cpu0.itb.rdAccesses                          0                       # TLB accesses on read requests
system.cpu0.itb.wrAccesses                    2223562                       # TLB accesses on write requests
system.cpu0.itb.rdMisses                            0                       # TLB misses on read requests
system.cpu0.itb.wrMisses                            0                       # TLB misses on write requests
system.cpu0.workload.numSyscalls                    0                       # Number of system calls
system.cpu0.pwrStateResidencyTicks::ON    15267344125                       # Cumulative time (in ticks) in various power states
system.cpu0.numCycles                        30534688                       # number of cpu cycles simulated
system.cpu0.numWorkItemsStarted                     0                       # number of work items this cpu started
system.cpu0.numWorkItemsCompleted                   0                       # number of work items this cpu completed
system.cpu0.fetch.icacheStallCycles           2223797                       # Number of cycles fetch is stalled on an Icache miss
system.cpu0.fetch.Insts                      14836038                       # Number of instructions fetch has processed
system.cpu0.fetch.Branches                    3530117                       # Number of branches that fetch encountered
system.cpu0.fetch.predictedBranches           1764925                       # Number of branches that fetch has predicted taken
system.cpu0.fetch.Cycles                     28310469                       # Number of cycles fetch has run and was not squashing or blocked
system.cpu0.fetch.SquashCycles                    492                       # Number of cycles fetch has spent squashing
system.cpu0.fetch.CacheLines                  2223562                       # Number of cache lines fetched
system.cpu0.fetch.IcacheSquashes                   18                       # Number of outstanding Icache misses that were squashed
system.cpu0.fetch.rateDist::samples          30534512                       # Number of instructions fetched each cycle (Total)
system.cpu0.fetch.rateDist::mean             0.986686                       # Number of instructions fetched each cycle (Total)
system.cpu0.fetch.rateDist::stdev            2.409907                       # Number of instructions fetched each cycle (Total)
system.cpu0.fetch.rateDist::underflows              0      0.00%      0.00% # Number of instructions fetched each cycle (Total)
system.cpu0.fetch.rateDist::0                25422689     83.26%     83.26% # Number of instructions fetched each cycle (Total)
system.cpu0.fetch.rateDist::1                  327984      1.07%     84.33% # Number of instructions fetched each cycle (Total)
system.cpu0.fetch.rateDist::2                  385444      1.26%     85.60% # Number of instructions fetched each cycle (Total)
system.cpu0.fetch.rateDist::3                  272532      0.89%     86.49% # Number of instructions fetched each cycle (Total)
system.cpu0.fetch.rateDist::4                  532132      1.74%     88.23% # Number of instructions fetched each cycle (Total)
system.cpu0.fetch.rateDist::5                  566310      1.85%     90.09% # Number of instructions fetched each cycle (Total)
system.cpu0.fetch.rateDist::6                  415174      1.36%     91.44% # Number of instructions fetched each cycle (Total)
system.cpu0.fetch.rateDist::7                  137583      0.45%     91.90% # Number of instructions fetched each cycle (Total)
system.cpu0.fetch.rateDist::8                 2474664      8.10%    100.00% # Number of instructions fetched each cycle (Total)
system.cpu0.fetch.rateDist::overflows               0      0.00%    100.00% # Number of instructions fetched each cycle (Total)
system.cpu0.fetch.rateDist::min_value               0                       # Number of instructions fetched each cycle (Total)
system.cpu0.fetch.rateDist::max_value               8                       # Number of instructions fetched each cycle (Total)
system.cpu0.fetch.rateDist::total            30534512                       # Number of instructions fetched each cycle (Total)
system.cpu0.fetch.branchRate                 0.115610                       # Number of branch fetches per cycle
system.cpu0.fetch.rate                       0.485875                       # Number of inst fetches per cycle
system.cpu0.decode.IdleCycles                  928218                       # Number of cycles decode is idle
system.cpu0.decode.BlockedCycles             25463060                       # Number of cycles decode is blocked
system.cpu0.decode.RunCycles                  3086522                       # Number of cycles decode is running
system.cpu0.decode.UnblockCycles              1056466                       # Number of cycles decode is unblocking
system.cpu0.decode.SquashCycles                   246                       # Number of cycles decode is squashing
system.cpu0.decode.DecodedInsts              30121632                       # Number of instructions handled by decode
system.cpu0.rename.SquashCycles                   246                       # Number of cycles rename is squashing
system.cpu0.rename.IdleCycles                 1479262                       # Number of cycles rename is idle
system.cpu0.rename.BlockCycles               22781143                       # Number of cycles rename is blocking
system.cpu0.rename.serializeStallCycles           683                       # count of cycles rename stalled for serializing inst
system.cpu0.rename.RunCycles                  3490505                       # Number of cycles rename is running
system.cpu0.rename.UnblockCycles              2782673                       # Number of cycles rename is unblocking
system.cpu0.rename.RenamedInsts              30120521                       # Number of instructions processed by rename
system.cpu0.rename.ROBFullEvents               199445                       # Number of times rename has blocked due to ROB full
system.cpu0.rename.IQFullEvents               2203878                       # Number of times rename has blocked due to IQ full
system.cpu0.rename.LQFullEvents                     5                       # Number of times rename has blocked due to LQ full
system.cpu0.rename.RenamedOperands           33312659                       # Number of destination operands rename has renamed
system.cpu0.rename.RenameLookups             78611777                       # Number of register rename lookups that rename has made
system.cpu0.rename.int_rename_lookups        45502682                       # Number of integer rename lookups
system.cpu0.rename.CommittedMaps             33291694                       # Number of HB maps that are committed
system.cpu0.rename.UndoneMaps                   21013                       # Number of HB maps that are undone due to squashing
system.cpu0.rename.serializingInsts                 2                       # count of serializing insts renamed
system.cpu0.rename.tempSerializingInsts             2                       # count of temporary serializing insts renamed
system.cpu0.rename.skidInsts                  7282663                       # count of insts added to the skid buffer
system.cpu0.memDep0.insertedLoads             3650493                       # Number of loads inserted to the mem dependence unit.
system.cpu0.memDep0.insertedStores            2573460                       # Number of stores inserted to the mem dependence unit.
system.cpu0.memDep0.conflictingLoads           123095                       # Number of conflicting loads.
system.cpu0.memDep0.conflictingStores          122599                       # Number of conflicting stores.
system.cpu0.iq.iqInstsAdded                  30118893                       # Number of instructions added to the IQ (excludes non-spec)
system.cpu0.iq.iqNonSpecInstsAdded                 31                       # Number of non-speculative instructions added to the IQ
system.cpu0.iq.iqInstsIssued                 30113300                       # Number of instructions issued
system.cpu0.iq.iqSquashedInstsIssued              300                       # Number of squashed instructions issued
system.cpu0.iq.iqSquashedInstsExamined          17885                       # Number of squashed instructions iterated over during squash; mainly for profiling
system.cpu0.iq.iqSquashedOperandsExamined        24037                       # Number of squashed operands that are examined and possibly removed from graph
system.cpu0.iq.iqSquashedNonSpecRemoved            28                       # Number of squashed non-spec instructions that were removed
system.cpu0.iq.issued_per_cycle::samples     30534512                       # Number of insts issued each cycle
system.cpu0.iq.issued_per_cycle::mean        0.986205                       # Number of insts issued each cycle
system.cpu0.iq.issued_per_cycle::stdev       2.016452                       # Number of insts issued each cycle
system.cpu0.iq.issued_per_cycle::underflows            0      0.00%      0.00% # Number of insts issued each cycle
system.cpu0.iq.issued_per_cycle::0           22750266     74.51%     74.51% # Number of insts issued each cycle
system.cpu0.iq.issued_per_cycle::1            1392094      4.56%     79.07% # Number of insts issued each cycle
system.cpu0.iq.issued_per_cycle::2            1246022      4.08%     83.15% # Number of insts issued each cycle
system.cpu0.iq.issued_per_cycle::3            1239066      4.06%     87.20% # Number of insts issued each cycle
system.cpu0.iq.issued_per_cycle::4             776926      2.54%     89.75% # Number of insts issued each cycle
system.cpu0.iq.issued_per_cycle::5            1135201      3.72%     93.47% # Number of insts issued each cycle
system.cpu0.iq.issued_per_cycle::6             653798      2.14%     95.61% # Number of insts issued each cycle
system.cpu0.iq.issued_per_cycle::7             923645      3.02%     98.63% # Number of insts issued each cycle
system.cpu0.iq.issued_per_cycle::8             417494      1.37%    100.00% # Number of insts issued each cycle
system.cpu0.iq.issued_per_cycle::overflows            0      0.00%    100.00% # Number of insts issued each cycle
system.cpu0.iq.issued_per_cycle::min_value            0                       # Number of insts issued each cycle
system.cpu0.iq.issued_per_cycle::max_value            8                       # Number of insts issued each cycle
system.cpu0.iq.issued_per_cycle::total       30534512                       # Number of insts issued each cycle
system.cpu0.iq.fu_full::No_OpClass                  0      0.00%      0.00% # attempts to use FU when none available
system.cpu0.iq.fu_full::IntAlu                 591950     68.46%     68.46% # attempts to use FU when none available
system.cpu0.iq.fu_full::IntMult                     0      0.00%     68.46% # attempts to use FU when none available
system.cpu0.iq.fu_full::IntDiv                      0      0.00%     68.46% # attempts to use FU when none available
system.cpu0.iq.fu_full::FloatAdd                    0      0.00%     68.46% # attempts to use FU when none available
system.cpu0.iq.fu_full::FloatCmp                    0      0.00%     68.46% # attempts to use FU when none available
system.cpu0.iq.fu_full::FloatCvt                    0      0.00%     68.46% # attempts to use FU when none available
system.cpu0.iq.fu_full::FloatMult                   0      0.00%     68.46% # attempts to use FU when none available
system.cpu0.iq.fu_full::FloatMultAcc                0      0.00%     68.46% # attempts to use FU when none available
system.cpu0.iq.fu_full::FloatDiv                    0      0.00%     68.46% # attempts to use FU when none available
system.cpu0.iq.fu_full::FloatMisc                   0      0.00%     68.46% # attempts to use FU when none available
system.cpu0.iq.fu_full::FloatSqrt                   0      0.00%     68.46% # attempts to use FU when none available
system.cpu0.iq.fu_full::SimdAdd                     0      0.00%     68.46% # attempts to use FU when none available
system.cpu0.iq.fu_full::SimdAddAcc                  0      0.00%     68.46% # attempts to use FU when none available
system.cpu0.iq.fu_full::SimdAlu                     0      0.00%     68.46% # attempts to use FU when none available
system.cpu0.iq.fu_full::SimdCmp                     0      0.00%     68.46% # attempts to use FU when none available
system.cpu0.iq.fu_full::SimdCvt                     0      0.00%     68.46% # attempts to use FU when none available
system.cpu0.iq.fu_full::SimdMisc                    0      0.00%     68.46% # attempts to use FU when none available
system.cpu0.iq.fu_full::SimdMult                    0      0.00%     68.46% # attempts to use FU when none available
system.cpu0.iq.fu_full::SimdMultAcc                 0      0.00%     68.46% # attempts to use FU when none available
system.cpu0.iq.fu_full::SimdShift                   0      0.00%     68.46% # attempts to use FU when none available
system.cpu0.iq.fu_full::SimdShiftAcc                0      0.00%     68.46% # attempts to use FU when none available
system.cpu0.iq.fu_full::SimdSqrt                    0      0.00%     68.46% # attempts to use FU when none available
system.cpu0.iq.fu_full::SimdFloatAdd                0      0.00%     68.46% # attempts to use FU when none available
system.cpu0.iq.fu_full::SimdFloatAlu                0      0.00%     68.46% # attempts to use FU when none available
system.cpu0.iq.fu_full::SimdFloatCmp                0      0.00%     68.46% # attempts to use FU when none available
system.cpu0.iq.fu_full::SimdFloatCvt                0      0.00%     68.46% # attempts to use FU when none available
system.cpu0.iq.fu_full::SimdFloatDiv                0      0.00%     68.46% # attempts to use FU when none available
system.cpu0.iq.fu_full::SimdFloatMisc               0      0.00%     68.46% # attempts to use FU when none available
system.cpu0.iq.fu_full::SimdFloatMult               0      0.00%     68.46% # attempts to use FU when none available
system.cpu0.iq.fu_full::SimdFloatMultAcc            0      0.00%     68.46% # attempts to use FU when none available
system.cpu0.iq.fu_full::SimdFloatSqrt               0      0.00%     68.46% # attempts to use FU when none available
system.cpu0.iq.fu_full::MemRead                 71398      8.26%     76.72% # attempts to use FU when none available
system.cpu0.iq.fu_full::MemWrite               201284     23.28%    100.00% # attempts to use FU when none available
system.cpu0.iq.fu_full::FloatMemRead                0      0.00%    100.00% # attempts to use FU when none available
system.cpu0.iq.fu_full::FloatMemWrite               0      0.00%    100.00% # attempts to use FU when none available
system.cpu0.iq.fu_full::IprAccess                   0      0.00%    100.00% # attempts to use FU when none available
system.cpu0.iq.fu_full::InstPrefetch                0      0.00%    100.00% # attempts to use FU when none available
system.cpu0.iq.FU_type_0::No_OpClass              188      0.00%      0.00% # Type of FU issued
system.cpu0.iq.FU_type_0::IntAlu             23890172     79.33%     79.33% # Type of FU issued
system.cpu0.iq.FU_type_0::IntMult                   0      0.00%     79.33% # Type of FU issued
system.cpu0.iq.FU_type_0::IntDiv                    0      0.00%     79.33% # Type of FU issued
system.cpu0.iq.FU_type_0::FloatAdd                  0      0.00%     79.33% # Type of FU issued
system.cpu0.iq.FU_type_0::FloatCmp                  0      0.00%     79.33% # Type of FU issued
system.cpu0.iq.FU_type_0::FloatCvt                  0      0.00%     79.33% # Type of FU issued
system.cpu0.iq.FU_type_0::FloatMult                 0      0.00%     79.33% # Type of FU issued
system.cpu0.iq.FU_type_0::FloatMultAcc              0      0.00%     79.33% # Type of FU issued
system.cpu0.iq.FU_type_0::FloatDiv                  0      0.00%     79.33% # Type of FU issued
system.cpu0.iq.FU_type_0::FloatMisc                 0      0.00%     79.33% # Type of FU issued
system.cpu0.iq.FU_type_0::FloatSqrt                 0      0.00%     79.33% # Type of FU issued
system.cpu0.iq.FU_type_0::SimdAdd                   0      0.00%     79.33% # Type of FU issued
system.cpu0.iq.FU_type_0::SimdAddAcc                0      0.00%     79.33% # Type of FU issued
system.cpu0.iq.FU_type_0::SimdAlu                   0      0.00%     79.33% # Type of FU issued
system.cpu0.iq.FU_type_0::SimdCmp                   0      0.00%     79.33% # Type of FU issued
system.cpu0.iq.FU_type_0::SimdCvt                   0      0.00%     79.33% # Type of FU issued
system.cpu0.iq.FU_type_0::SimdMisc                  0      0.00%     79.33% # Type of FU issued
system.cpu0.iq.FU_type_0::SimdMult                  0      0.00%     79.33% # Type of FU issued
system.cpu0.iq.FU_type_0::SimdMultAcc               0      0.00%     79.33% # Type of FU issued
system.cpu0.iq.FU_type_0::SimdShift                 0      0.00%     79.33% # Type of FU issued
system.cpu0.iq.FU_type_0::SimdShiftAcc              0      0.00%     79.33% # Type of FU issued
system.cpu0.iq.FU_type_0::SimdSqrt                  0      0.00%     79.33% # Type of FU issued
system.cpu0.iq.FU_type_0::SimdFloatAdd              0      0.00%     79.33% # Type of FU issued
system.cpu0.iq.FU_type_0::SimdFloatAlu              0      0.00%     79.33% # Type of FU issued
system.cpu0.iq.FU_type_0::SimdFloatCmp              0      0.00%     79.33% # Type of FU issued
system.cpu0.iq.FU_type_0::SimdFloatCvt              0      0.00%     79.33% # Type of FU issued
system.cpu0.iq.FU_type_0::SimdFloatDiv              0      0.00%     79.33% # Type of FU issued
system.cpu0.iq.FU_type_0::SimdFloatMisc             0      0.00%     79.33% # Type of FU issued
system.cpu0.iq.FU_type_0::SimdFloatMult             0      0.00%     79.33% # Type of FU issued
system.cpu0.iq.FU_type_0::SimdFloatMultAcc            0      0.00%     79.33% # Type of FU issued
system.cpu0.iq.FU_type_0::SimdFloatSqrt             0      0.00%     79.33% # Type of FU issued
system.cpu0.iq.FU_type_0::MemRead             3650063     12.12%     91.46% # Type of FU issued
system.cpu0.iq.FU_type_0::MemWrite            2572877      8.54%    100.00% # Type of FU issued
system.cpu0.iq.FU_type_0::FloatMemRead              0      0.00%    100.00% # Type of FU issued
system.cpu0.iq.FU_type_0::FloatMemWrite             0      0.00%    100.00% # Type of FU issued
system.cpu0.iq.FU_type_0::IprAccess                 0      0.00%    100.00% # Type of FU issued
system.cpu0.iq.FU_type_0::InstPrefetch              0      0.00%    100.00% # Type of FU issued
system.cpu0.iq.FU_type_0::total              30113300                       # Type of FU issued
system.cpu0.iq.rate                          0.986200                       # Inst issue rate
system.cpu0.iq.fu_busy_cnt                     864632                       # FU busy when requested
system.cpu0.iq.fu_busy_rate                  0.028713                       # FU busy rate (busy events/executed inst)
system.cpu0.iq.int_inst_queue_reads          91626049                       # Number of integer instruction queue reads
system.cpu0.iq.int_inst_queue_writes         30136832                       # Number of integer instruction queue writes
system.cpu0.iq.int_inst_queue_wakeup_accesses     30112613                       # Number of integer instruction queue wakeup accesses
system.cpu0.iq.fp_inst_queue_reads                  0                       # Number of floating instruction queue reads
system.cpu0.iq.fp_inst_queue_writes                 0                       # Number of floating instruction queue writes
system.cpu0.iq.fp_inst_queue_wakeup_accesses            0                       # Number of floating instruction queue wakeup accesses
system.cpu0.iq.vec_inst_queue_reads                 0                       # Number of vector instruction queue reads
system.cpu0.iq.vec_inst_queue_writes                0                       # Number of vector instruction queue writes
system.cpu0.iq.vec_inst_queue_wakeup_accesses            0                       # Number of vector instruction queue wakeup accesses
system.cpu0.iq.int_alu_accesses              30977744                       # Number of integer alu accesses
system.cpu0.iq.fp_alu_accesses                      0                       # Number of floating point alu accesses
system.cpu0.iq.vec_alu_accesses                     0                       # Number of vector alu accesses
system.cpu0.iew.lsq.thread0.forwLoads          983250                       # Number of loads that had data forwarded from stores
system.cpu0.iew.lsq.thread0.invAddrLoads            0                       # Number of loads ignored due to an invalid address
system.cpu0.iew.lsq.thread0.squashedLoads         2008                       # Number of loads squashed
system.cpu0.iew.lsq.thread0.ignoredResponses            3                       # Number of memory responses ignored because the instruction is squashed
system.cpu0.iew.lsq.thread0.memOrderViolation           23                       # Number of memory ordering violations
system.cpu0.iew.lsq.thread0.squashedStores         1644                       # Number of stores squashed
system.cpu0.iew.lsq.thread0.invAddrSwpfs            0                       # Number of software prefetches ignored due to an invalid address
system.cpu0.iew.lsq.thread0.blockedLoads            0                       # Number of blocked loads due to partial load-store forwarding
system.cpu0.iew.lsq.thread0.rescheduledLoads            0                       # Number of loads that were rescheduled
system.cpu0.iew.lsq.thread0.cacheBlocked           11                       # Number of times an access to memory failed due to the cache being blocked
system.cpu0.iew.iewIdleCycles                       0                       # Number of cycles IEW is idle
system.cpu0.iew.iewSquashCycles                   246                       # Number of cycles IEW is squashing
system.cpu0.iew.iewBlockCycles               17114718                       # Number of cycles IEW is blocking
system.cpu0.iew.iewUnblockCycles               185902                       # Number of cycles IEW is unblocking
system.cpu0.iew.iewDispatchedInsts           30118924                       # Number of instructions dispatched to IQ
system.cpu0.iew.iewDispSquashedInsts               11                       # Number of squashed instructions skipped by dispatch
system.cpu0.iew.iewDispLoadInsts              3650493                       # Number of dispatched load instructions
system.cpu0.iew.iewDispStoreInsts             2573460                       # Number of dispatched store instructions
system.cpu0.iew.iewDispNonSpecInsts                12                       # Number of dispatched non-speculative instructions
system.cpu0.iew.iewIQFullEvents                 61686                       # Number of times the IQ has become full, causing a stall
system.cpu0.iew.iewLSQFullEvents                    0                       # Number of times the LSQ has become full, causing a stall
system.cpu0.iew.memOrderViolationEvents            23                       # Number of memory order violations
system.cpu0.iew.predictedTakenIncorrect           180                       # Number of branches that were predicted taken incorrectly
system.cpu0.iew.predictedNotTakenIncorrect           60                       # Number of branches that were predicted not taken incorrectly
system.cpu0.iew.branchMispredicts                 240                       # Number of branch mispredicts detected at execute
system.cpu0.iew.iewExecutedInsts             30112947                       # Number of executed instructions
system.cpu0.iew.iewExecLoadInsts              3649969                       # Number of load instructions executed
system.cpu0.iew.iewExecSquashedInsts              358                       # Number of squashed instructions skipped in execute
system.cpu0.iew.exec_swp                            0                       # number of swp insts executed
system.cpu0.iew.exec_nop                            0                       # number of nop insts executed
system.cpu0.iew.exec_refs                     6222777                       # number of memory reference insts executed
system.cpu0.iew.exec_branches                 3527840                       # Number of branches executed
system.cpu0.iew.exec_stores                   2572808                       # Number of stores executed
system.cpu0.iew.exec_rate                    0.986188                       # Inst execution rate
system.cpu0.iew.wb_sent                      30112742                       # cumulative count of insts sent to commit
system.cpu0.iew.wb_count                     30112613                       # cumulative count of insts written-back
system.cpu0.iew.wb_producers                 21925963                       # num instructions producing a value
system.cpu0.iew.wb_consumers                 40051211                       # num instructions consuming a value
system.cpu0.iew.wb_rate                      0.986177                       # insts written-back per cycle
system.cpu0.iew.wb_fanout                    0.547448                       # average fanout of values written-back
system.cpu0.commit.commitSquashedInsts          17885                       # The number of squashed insts skipped by commit
system.cpu0.commit.commitNonSpecStalls              3                       # The number of times commit has been forced to stall to communicate backwards
system.cpu0.commit.branchMispredicts              223                       # The number of times a branch was mispredicted
system.cpu0.commit.committed_per_cycle::samples     30532111                       # Number of insts commited each cycle
system.cpu0.commit.committed_per_cycle::mean     0.985882                       # Number of insts commited each cycle
system.cpu0.commit.committed_per_cycle::stdev     2.449211                       # Number of insts commited each cycle
system.cpu0.commit.committed_per_cycle::underflows            0      0.00%      0.00% # Number of insts commited each cycle
system.cpu0.commit.committed_per_cycle::0     25471532     83.43%     83.43% # Number of insts commited each cycle
system.cpu0.commit.committed_per_cycle::1       374973      1.23%     84.65% # Number of insts commited each cycle
system.cpu0.commit.committed_per_cycle::2       404591      1.33%     85.98% # Number of insts commited each cycle
system.cpu0.commit.committed_per_cycle::3       569287      1.86%     87.84% # Number of insts commited each cycle
system.cpu0.commit.committed_per_cycle::4       377038      1.23%     89.08% # Number of insts commited each cycle
system.cpu0.commit.committed_per_cycle::5        64452      0.21%     89.29% # Number of insts commited each cycle
system.cpu0.commit.committed_per_cycle::6       259973      0.85%     90.14% # Number of insts commited each cycle
system.cpu0.commit.committed_per_cycle::7       263317      0.86%     91.00% # Number of insts commited each cycle
system.cpu0.commit.committed_per_cycle::8      2746948      9.00%    100.00% # Number of insts commited each cycle
system.cpu0.commit.committed_per_cycle::overflows            0      0.00%    100.00% # Number of insts commited each cycle
system.cpu0.commit.committed_per_cycle::min_value            0                       # Number of insts commited each cycle
system.cpu0.commit.committed_per_cycle::max_value            8                       # Number of insts commited each cycle
system.cpu0.commit.committed_per_cycle::total     30532111                       # Number of insts commited each cycle
system.cpu0.commit.committedInsts            14822661                       # Number of instructions committed
system.cpu0.commit.committedOps              30101069                       # Number of ops (including micro ops) committed
system.cpu0.commit.swp_count                        0                       # Number of s/w prefetches committed
system.cpu0.commit.refs                       6220295                       # Number of memory references committed
system.cpu0.commit.loads                      3648479                       # Number of loads committed
system.cpu0.commit.membars                          2                       # Number of memory barriers committed
system.cpu0.commit.branches                   3527039                       # Number of branches committed
system.cpu0.commit.vec_insts                        0                       # Number of committed Vector instructions.
system.cpu0.commit.fp_insts                         0                       # Number of committed floating point instructions.
system.cpu0.commit.int_insts                 30100986                       # Number of committed integer instructions.
system.cpu0.commit.function_calls              215283                       # Number of function calls committed.
system.cpu0.commit.op_class_0::No_OpClass           81      0.00%      0.00% # Class of committed instruction
system.cpu0.commit.op_class_0::IntAlu        23880693     79.34%     79.34% # Class of committed instruction
system.cpu0.commit.op_class_0::IntMult              0      0.00%     79.34% # Class of committed instruction
system.cpu0.commit.op_class_0::IntDiv               0      0.00%     79.34% # Class of committed instruction
system.cpu0.commit.op_class_0::FloatAdd             0      0.00%     79.34% # Class of committed instruction
system.cpu0.commit.op_class_0::FloatCmp             0      0.00%     79.34% # Class of committed instruction
system.cpu0.commit.op_class_0::FloatCvt             0      0.00%     79.34% # Class of committed instruction
system.cpu0.commit.op_class_0::FloatMult            0      0.00%     79.34% # Class of committed instruction
system.cpu0.commit.op_class_0::FloatMultAcc            0      0.00%     79.34% # Class of committed instruction
system.cpu0.commit.op_class_0::FloatDiv             0      0.00%     79.34% # Class of committed instruction
system.cpu0.commit.op_class_0::FloatMisc            0      0.00%     79.34% # Class of committed instruction
system.cpu0.commit.op_class_0::FloatSqrt            0      0.00%     79.34% # Class of committed instruction
system.cpu0.commit.op_class_0::SimdAdd              0      0.00%     79.34% # Class of committed instruction
system.cpu0.commit.op_class_0::SimdAddAcc            0      0.00%     79.34% # Class of committed instruction
system.cpu0.commit.op_class_0::SimdAlu              0      0.00%     79.34% # Class of committed instruction
system.cpu0.commit.op_class_0::SimdCmp              0      0.00%     79.34% # Class of committed instruction
system.cpu0.commit.op_class_0::SimdCvt              0      0.00%     79.34% # Class of committed instruction
system.cpu0.commit.op_class_0::SimdMisc             0      0.00%     79.34% # Class of committed instruction
system.cpu0.commit.op_class_0::SimdMult             0      0.00%     79.34% # Class of committed instruction
system.cpu0.commit.op_class_0::SimdMultAcc            0      0.00%     79.34% # Class of committed instruction
system.cpu0.commit.op_class_0::SimdShift            0      0.00%     79.34% # Class of committed instruction
system.cpu0.commit.op_class_0::SimdShiftAcc            0      0.00%     79.34% # Class of committed instruction
system.cpu0.commit.op_class_0::SimdSqrt             0      0.00%     79.34% # Class of committed instruction
system.cpu0.commit.op_class_0::SimdFloatAdd            0      0.00%     79.34% # Class of committed instruction
system.cpu0.commit.op_class_0::SimdFloatAlu            0      0.00%     79.34% # Class of committed instruction
system.cpu0.commit.op_class_0::SimdFloatCmp            0      0.00%     79.34% # Class of committed instruction
system.cpu0.commit.op_class_0::SimdFloatCvt            0      0.00%     79.34% # Class of committed instruction
system.cpu0.commit.op_class_0::SimdFloatDiv            0      0.00%     79.34% # Class of committed instruction
system.cpu0.commit.op_class_0::SimdFloatMisc            0      0.00%     79.34% # Class of committed instruction
system.cpu0.commit.op_class_0::SimdFloatMult            0      0.00%     79.34% # Class of committed instruction
system.cpu0.commit.op_class_0::SimdFloatMultAcc            0      0.00%     79.34% # Class of committed instruction
system.cpu0.commit.op_class_0::SimdFloatSqrt            0      0.00%     79.34% # Class of committed instruction
system.cpu0.commit.op_class_0::MemRead        3648479     12.12%     91.46% # Class of committed instruction
system.cpu0.commit.op_class_0::MemWrite       2571816      8.54%    100.00% # Class of committed instruction
system.cpu0.commit.op_class_0::FloatMemRead            0      0.00%    100.00% # Class of committed instruction
system.cpu0.commit.op_class_0::FloatMemWrite            0      0.00%    100.00% # Class of committed instruction
system.cpu0.commit.op_class_0::IprAccess            0      0.00%    100.00% # Class of committed instruction
system.cpu0.commit.op_class_0::InstPrefetch            0      0.00%    100.00% # Class of committed instruction
system.cpu0.commit.op_class_0::total         30101069                       # Class of committed instruction
system.cpu0.commit.bw_lim_events              2746948                       # number cycles where commit BW limit reached
system.cpu0.rob.rob_reads                    57904117                       # The number of ROB reads
system.cpu0.rob.rob_writes                   60240281                       # The number of ROB writes
system.cpu0.timesIdled                              1                       # Number of times that the entire CPU went into an idle state and unscheduled itself
system.cpu0.idleCycles                            176                       # Total number of cycles that the CPU has spent unscheduled due to idling
system.cpu0.committedInsts                   14822661                       # Number of Instructions Simulated
system.cpu0.committedOps                     30101069                       # Number of Ops (including micro ops) Simulated
system.cpu0.cpi                              2.060000                       # CPI: Cycles Per Instruction
system.cpu0.cpi_total                        2.060000                       # CPI: Total CPI of All Threads
system.cpu0.ipc                              0.485437                       # IPC: Instructions Per Cycle
system.cpu0.ipc_total                        0.485437                       # IPC: Total IPC of All Threads
system.cpu0.int_regfile_reads                45487528                       # number of integer regfile reads
system.cpu0.int_regfile_writes               24011797                       # number of integer regfile writes
system.cpu0.cc_regfile_reads                 19709621                       # number of cc regfile reads
system.cpu0.cc_regfile_writes                 9291158                       # number of cc regfile writes
system.cpu0.misc_regfile_reads               13387492                       # number of misc regfile reads
system.cpu0.dcache.tags.pwrStateResidencyTicks::UNDEFINED  15267344125                       # Cumulative time (in ticks) in various power states
system.cpu0.dcache.tags.replacements           339573                       # number of replacements
system.cpu0.dcache.tags.tagsinuse                 512                       # Cycle average of tags in use
system.cpu0.dcache.tags.total_refs            8059186                       # Total number of references to valid blocks.
system.cpu0.dcache.tags.sampled_refs           339573                       # Sample count of references to valid blocks.
system.cpu0.dcache.tags.avg_refs            23.733294                       # Average number of references to valid blocks.
system.cpu0.dcache.tags.warmup_cycle                0                       # Cycle when the warmup percentage was hit.
system.cpu0.dcache.tags.occ_blocks::cpu0.data          512                       # Average occupied blocks per requestor
system.cpu0.dcache.tags.occ_percent::cpu0.data            1                       # Average percentage of cache occupancy
system.cpu0.dcache.tags.occ_percent::total            1                       # Average percentage of cache occupancy
system.cpu0.dcache.tags.occ_task_id_blocks::1024          512                       # Occupied blocks per task id
system.cpu0.dcache.tags.age_task_id_blocks_1024::0          133                       # Occupied blocks per task id
system.cpu0.dcache.tags.age_task_id_blocks_1024::1          378                       # Occupied blocks per task id
system.cpu0.dcache.tags.age_task_id_blocks_1024::3            1                       # Occupied blocks per task id
system.cpu0.dcache.tags.occ_task_id_percent::1024            1                       # Percentage of cache occupancy per task id
system.cpu0.dcache.tags.tag_accesses         21293245                       # Number of tag accesses
system.cpu0.dcache.tags.data_accesses        21293245                       # Number of data accesses
system.cpu0.dcache.pwrStateResidencyTicks::UNDEFINED  15267344125                       # Cumulative time (in ticks) in various power states
system.cpu0.dcache.ReadReq_hits::cpu0.data      2027839                       # number of ReadReq hits
system.cpu0.dcache.ReadReq_hits::total        2027839                       # number of ReadReq hits
system.cpu0.dcache.WriteReq_hits::cpu0.data      2571816                       # number of WriteReq hits
system.cpu0.dcache.WriteReq_hits::total       2571816                       # number of WriteReq hits
system.cpu0.dcache.demand_hits::cpu0.data      4599655                       # number of demand (read+write) hits
system.cpu0.dcache.demand_hits::total         4599655                       # number of demand (read+write) hits
system.cpu0.dcache.overall_hits::cpu0.data      4599655                       # number of overall hits
system.cpu0.dcache.overall_hits::total        4599655                       # number of overall hits
system.cpu0.dcache.ReadReq_misses::cpu0.data       638762                       # number of ReadReq misses
system.cpu0.dcache.ReadReq_misses::total       638762                       # number of ReadReq misses
system.cpu0.dcache.WriteReq_misses::cpu0.data            1                       # number of WriteReq misses
system.cpu0.dcache.WriteReq_misses::total            1                       # number of WriteReq misses
system.cpu0.dcache.demand_misses::cpu0.data       638763                       # number of demand (read+write) misses
system.cpu0.dcache.demand_misses::total        638763                       # number of demand (read+write) misses
system.cpu0.dcache.overall_misses::cpu0.data       638763                       # number of overall misses
system.cpu0.dcache.overall_misses::total       638763                       # number of overall misses
system.cpu0.dcache.ReadReq_miss_latency::cpu0.data  33944247500                       # number of ReadReq miss cycles
system.cpu0.dcache.ReadReq_miss_latency::total  33944247500                       # number of ReadReq miss cycles
system.cpu0.dcache.WriteReq_miss_latency::cpu0.data       127500                       # number of WriteReq miss cycles
system.cpu0.dcache.WriteReq_miss_latency::total       127500                       # number of WriteReq miss cycles
system.cpu0.dcache.demand_miss_latency::cpu0.data  33944375000                       # number of demand (read+write) miss cycles
system.cpu0.dcache.demand_miss_latency::total  33944375000                       # number of demand (read+write) miss cycles
system.cpu0.dcache.overall_miss_latency::cpu0.data  33944375000                       # number of overall miss cycles
system.cpu0.dcache.overall_miss_latency::total  33944375000                       # number of overall miss cycles
system.cpu0.dcache.ReadReq_accesses::cpu0.data      2666601                       # number of ReadReq accesses(hits+misses)
system.cpu0.dcache.ReadReq_accesses::total      2666601                       # number of ReadReq accesses(hits+misses)
system.cpu0.dcache.WriteReq_accesses::cpu0.data      2571817                       # number of WriteReq accesses(hits+misses)
system.cpu0.dcache.WriteReq_accesses::total      2571817                       # number of WriteReq accesses(hits+misses)
system.cpu0.dcache.demand_accesses::cpu0.data      5238418                       # number of demand (read+write) accesses
system.cpu0.dcache.demand_accesses::total      5238418                       # number of demand (read+write) accesses
system.cpu0.dcache.overall_accesses::cpu0.data      5238418                       # number of overall (read+write) accesses
system.cpu0.dcache.overall_accesses::total      5238418                       # number of overall (read+write) accesses
[...]
system.l2.ReadExReq_avg_miss_latency::cpu0.data       125000                       # average ReadExReq miss latency
system.l2.ReadExReq_avg_miss_latency::total       125000                       # average ReadExReq miss latency
system.l2.ReadCleanReq_avg_miss_latency::cpu0.inst       100750                       # average ReadCleanReq miss latency
system.l2.ReadCleanReq_avg_miss_latency::total       100750                       # average ReadCleanReq miss latency
system.l2.ReadSharedReq_avg_miss_latency::cpu0.data 94430.940174                       # average ReadSharedReq miss latency
system.l2.ReadSharedReq_avg_miss_latency::total 94430.940174                       # average ReadSharedReq miss latency
system.l2.demand_avg_miss_latency::cpu0.inst       100750                       # average overall miss latency
system.l2.demand_avg_miss_latency::cpu0.data 94431.130834                       # average overall miss latency
system.l2.demand_avg_miss_latency::total 94431.209655                       # average overall miss latency
system.l2.overall_avg_miss_latency::cpu0.inst       100750                       # average overall miss latency
system.l2.overall_avg_miss_latency::cpu0.data 94431.130834                       # average overall miss latency
system.l2.overall_avg_miss_latency::total 94431.209655                       # average overall miss latency
system.l2.blocked_cycles::no_mshrs                  0                       # number of cycles access was blocked
system.l2.blocked_cycles::no_targets                0                       # number of cycles access was blocked
system.l2.blocked::no_mshrs                         0                       # number of cycles access was blocked
system.l2.blocked::no_targets                       0                       # number of cycles access was blocked
system.l2.avg_blocked_cycles::no_mshrs            nan                       # average number of cycles each access was blocked
system.l2.avg_blocked_cycles::no_targets          nan                       # average number of cycles each access was blocked
system.l2.writebacks::writebacks               129671                       # number of writebacks
system.l2.writebacks::total                    129671                       # number of writebacks
system.l2.CleanEvict_mshr_misses::writebacks            3                       # number of CleanEvict MSHR misses
system.l2.CleanEvict_mshr_misses::total             3                       # number of CleanEvict MSHR misses
system.l2.ReadExReq_mshr_misses::cpu0.data            1                       # number of ReadExReq MSHR misses
system.l2.ReadExReq_mshr_misses::total              1                       # number of ReadExReq MSHR misses
system.l2.ReadCleanReq_mshr_misses::cpu0.inst            2                       # number of ReadCleanReq MSHR misses
system.l2.ReadCleanReq_mshr_misses::total            2                       # number of ReadCleanReq MSHR misses
system.l2.ReadSharedReq_mshr_misses::cpu0.data       160332                       # number of ReadSharedReq MSHR misses
system.l2.ReadSharedReq_mshr_misses::total       160332                       # number of ReadSharedReq MSHR misses
system.l2.demand_mshr_misses::cpu0.inst             2                       # number of demand (read+write) MSHR misses
system.l2.demand_mshr_misses::cpu0.data        160333                       # number of demand (read+write) MSHR misses
system.l2.demand_mshr_misses::total            160335                       # number of demand (read+write) MSHR misses
system.l2.overall_mshr_misses::cpu0.inst            2                       # number of overall MSHR misses
system.l2.overall_mshr_misses::cpu0.data       160333                       # number of overall MSHR misses
system.l2.overall_mshr_misses::total           160335                       # number of overall MSHR misses
system.l2.ReadExReq_mshr_miss_latency::cpu0.data       115000                       # number of ReadExReq MSHR miss cycles
system.l2.ReadExReq_mshr_miss_latency::total       115000                       # number of ReadExReq MSHR miss cycles
system.l2.ReadCleanReq_mshr_miss_latency::cpu0.inst       181500                       # number of ReadCleanReq MSHR miss cycles
system.l2.ReadCleanReq_mshr_miss_latency::total       181500                       # number of ReadCleanReq MSHR miss cycles
system.l2.ReadSharedReq_mshr_miss_latency::cpu0.data  13536991500                       # number of ReadSharedReq MSHR miss cycles
system.l2.ReadSharedReq_mshr_miss_latency::total  13536991500                       # number of ReadSharedReq MSHR miss cycles
system.l2.demand_mshr_miss_latency::cpu0.inst       181500                       # number of demand (read+write) MSHR miss cycles
system.l2.demand_mshr_miss_latency::cpu0.data  13537106500                       # number of demand (read+write) MSHR miss cycles
system.l2.demand_mshr_miss_latency::total  13537288000                       # number of demand (read+write) MSHR miss cycles
system.l2.overall_mshr_miss_latency::cpu0.inst       181500                       # number of overall MSHR miss cycles
system.l2.overall_mshr_miss_latency::cpu0.data  13537106500                       # number of overall MSHR miss cycles
system.l2.overall_mshr_miss_latency::total  13537288000                       # number of overall MSHR miss cycles
system.l2.CleanEvict_mshr_miss_rate::writebacks          inf                       # mshr miss rate for CleanEvict accesses
system.l2.CleanEvict_mshr_miss_rate::total          inf                       # mshr miss rate for CleanEvict accesses
system.l2.ReadExReq_mshr_miss_rate::cpu0.data            1                       # mshr miss rate for ReadExReq accesses
system.l2.ReadExReq_mshr_miss_rate::total            1                       # mshr miss rate for ReadExReq accesses
system.l2.ReadCleanReq_mshr_miss_rate::cpu0.inst            1                       # mshr miss rate for ReadCleanReq accesses
system.l2.ReadCleanReq_mshr_miss_rate::total            1                       # mshr miss rate for ReadCleanReq accesses
system.l2.ReadSharedReq_mshr_miss_rate::cpu0.data     0.472159                       # mshr miss rate for ReadSharedReq accesses
system.l2.ReadSharedReq_mshr_miss_rate::total     0.472159                       # mshr miss rate for ReadSharedReq accesses
system.l2.demand_mshr_miss_rate::cpu0.inst            1                       # mshr miss rate for demand accesses
system.l2.demand_mshr_miss_rate::cpu0.data     0.472161                       # mshr miss rate for demand accesses
system.l2.demand_mshr_miss_rate::total       0.472164                       # mshr miss rate for demand accesses
system.l2.overall_mshr_miss_rate::cpu0.inst            1                       # mshr miss rate for overall accesses
system.l2.overall_mshr_miss_rate::cpu0.data     0.472161                       # mshr miss rate for overall accesses
system.l2.overall_mshr_miss_rate::total      0.472164                       # mshr miss rate for overall accesses
system.l2.ReadExReq_avg_mshr_miss_latency::cpu0.data       115000                       # average ReadExReq mshr miss latency
system.l2.ReadExReq_avg_mshr_miss_latency::total       115000                       # average ReadExReq mshr miss latency
system.l2.ReadCleanReq_avg_mshr_miss_latency::cpu0.inst        90750                       # average ReadCleanReq mshr miss latency
system.l2.ReadCleanReq_avg_mshr_miss_latency::total        90750                       # average ReadCleanReq mshr miss latency
system.l2.ReadSharedReq_avg_mshr_miss_latency::cpu0.data 84431.002545                       # average ReadSharedReq mshr miss latency
system.l2.ReadSharedReq_avg_mshr_miss_latency::total 84431.002545                       # average ReadSharedReq mshr miss latency
system.l2.demand_avg_mshr_miss_latency::cpu0.inst        90750                       # average overall mshr miss latency
system.l2.demand_avg_mshr_miss_latency::cpu0.data 84431.193204                       # average overall mshr miss latency
system.l2.demand_avg_mshr_miss_latency::total 84431.272024                       # average overall mshr miss latency
system.l2.overall_avg_mshr_miss_latency::cpu0.inst        90750                       # average overall mshr miss latency
system.l2.overall_avg_mshr_miss_latency::cpu0.data 84431.193204                       # average overall mshr miss latency
system.l2.overall_avg_mshr_miss_latency::total 84431.272024                       # average overall mshr miss latency
system.membus.snoop_filter.tot_requests        320676                       # Total number of requests made to the snoop filter.
system.membus.snoop_filter.hit_single_requests       160341                       # Number of requests hitting in the snoop filter with a single holder of the requested data.
system.membus.snoop_filter.hit_multi_requests            0                       # Number of requests hitting in the snoop filter with multiple (>1) holders of the requested data.
system.membus.snoop_filter.tot_snoops               0                       # Total number of snoops made to the snoop filter.
system.membus.snoop_filter.hit_single_snoops            0                       # Number of snoops hitting in the snoop filter with a single holder of the requested data.
system.membus.snoop_filter.hit_multi_snoops            0                       # Number of snoops hitting in the snoop filter with multiple (>1) holders of the requested data.
system.membus.pwrStateResidencyTicks::UNDEFINED  15267344125                       # Cumulative time (in ticks) in various power states
system.membus.trans_dist::ReadResp             160333                       # Transaction distribution
system.membus.trans_dist::WritebackDirty       129671                       # Transaction distribution
system.membus.trans_dist::CleanEvict            30670                       # Transaction distribution
system.membus.trans_dist::ReadExReq                 1                       # Transaction distribution
system.membus.trans_dist::ReadExResp                1                       # Transaction distribution
system.membus.trans_dist::ReadSharedReq        160334                       # Transaction distribution
system.membus.pkt_count_system.l2.mem_side::system.mem_ctrls.port       481010                       # Packet count per connected master and slave (bytes)
system.membus.pkt_count_system.l2.mem_side::total       481010                       # Packet count per connected master and slave (bytes)
system.membus.pkt_count::total                 481010                       # Packet count per connected master and slave (bytes)
system.membus.pkt_size_system.l2.mem_side::system.mem_ctrls.port     18560320                       # Cumulative packet size per connected master and slave (bytes)
system.membus.pkt_size_system.l2.mem_side::total     18560320                       # Cumulative packet size per connected master and slave (bytes)
system.membus.pkt_size::total                18560320                       # Cumulative packet size per connected master and slave (bytes)
system.membus.snoops                                0                       # Total snoops (count)
system.membus.snoopTraffic                          0                       # Total snoop traffic (bytes)
system.membus.snoop_fanout::samples            160335                       # Request fanout histogram
system.membus.snoop_fanout::mean                    0                       # Request fanout histogram
system.membus.snoop_fanout::stdev                   0                       # Request fanout histogram
system.membus.snoop_fanout::underflows              0      0.00%      0.00% # Request fanout histogram
system.membus.snoop_fanout::0                  160335    100.00%    100.00% # Request fanout histogram
system.membus.snoop_fanout::1                       0      0.00%    100.00% # Request fanout histogram
system.membus.snoop_fanout::overflows               0      0.00%    100.00% # Request fanout histogram
system.membus.snoop_fanout::min_value               0                       # Request fanout histogram
system.membus.snoop_fanout::max_value               0                       # Request fanout histogram
system.membus.snoop_fanout::total              160335                       # Request fanout histogram
system.membus.reqLayer12.occupancy          857904000                       # Layer occupancy (ticks)
system.membus.reqLayer12.utilization              5.6                       # Layer utilization (%)
system.membus.respLayer1.occupancy          853453750                       # Layer occupancy (ticks)
system.membus.respLayer1.utilization              5.6                       # Layer utilization (%)
system.tol2bus.snoop_filter.tot_requests       679150                       # Total number of requests made to the snoop filter.
system.tol2bus.snoop_filter.hit_single_requests       339575                       # Number of requests hitting in the snoop filter with a single holder of the requested data.
system.tol2bus.snoop_filter.hit_multi_requests            0                       # Number of requests hitting in the snoop filter with multiple (>1) holders of the requested data.
system.tol2bus.snoop_filter.tot_snoops              4                       # Total number of snoops made to the snoop filter.
system.tol2bus.snoop_filter.hit_single_snoops            4                       # Number of snoops hitting in the snoop filter with a single holder of the requested data.
system.tol2bus.snoop_filter.hit_multi_snoops            0                       # Number of snoops hitting in the snoop filter with multiple (>1) holders of the requested data.
system.tol2bus.pwrStateResidencyTicks::UNDEFINED  15267344125                       # Cumulative time (in ticks) in various power states
system.tol2bus.trans_dist::ReadResp            339573                       # Transaction distribution
system.tol2bus.trans_dist::WritebackDirty       431351                       # Transaction distribution
system.tol2bus.trans_dist::WritebackClean            2                       # Transaction distribution
system.tol2bus.trans_dist::CleanEvict           68564                       # Transaction distribution
system.tol2bus.trans_dist::ReadExReq                1                       # Transaction distribution
system.tol2bus.trans_dist::ReadExResp               1                       # Transaction distribution
system.tol2bus.trans_dist::ReadCleanReq             2                       # Transaction distribution
system.tol2bus.trans_dist::ReadSharedReq       339572                       # Transaction distribution
system.tol2bus.pkt_count_system.cpu0.icache.mem_side::system.l2.cpu_side            6                       # Packet count per connected master and slave (bytes)
system.tol2bus.pkt_count_system.cpu0.dcache.mem_side::system.l2.cpu_side      1018718                       # Packet count per connected master and slave (bytes)
system.tol2bus.pkt_count::total               1018724                       # Packet count per connected master and slave (bytes)
system.tol2bus.pkt_size_system.cpu0.icache.mem_side::system.l2.cpu_side          256                       # Cumulative packet size per connected master and slave (bytes)
system.tol2bus.pkt_size_system.cpu0.dcache.mem_side::system.l2.cpu_side     41040128                       # Cumulative packet size per connected master and slave (bytes)
system.tol2bus.pkt_size::total               41040384                       # Cumulative packet size per connected master and slave (bytes)
system.tol2bus.snoops                          160342                       # Total snoops (count)
system.tol2bus.snoopTraffic                   8298944                       # Total snoop traffic (bytes)
system.tol2bus.snoop_fanout::samples           499917                       # Request fanout histogram
system.tol2bus.snoop_fanout::mean            0.000008                       # Request fanout histogram
system.tol2bus.snoop_fanout::stdev           0.002829                       # Request fanout histogram
system.tol2bus.snoop_fanout::underflows             0      0.00%      0.00% # Request fanout histogram
system.tol2bus.snoop_fanout::0                 499913    100.00%    100.00% # Request fanout histogram
system.tol2bus.snoop_fanout::1                      4      0.00%    100.00% # Request fanout histogram
system.tol2bus.snoop_fanout::2                      0      0.00%    100.00% # Request fanout histogram
system.tol2bus.snoop_fanout::3                      0      0.00%    100.00% # Request fanout histogram
system.tol2bus.snoop_fanout::4                      0      0.00%    100.00% # Request fanout histogram
system.tol2bus.snoop_fanout::5                      0      0.00%    100.00% # Request fanout histogram
system.tol2bus.snoop_fanout::6                      0      0.00%    100.00% # Request fanout histogram
system.tol2bus.snoop_fanout::7                      0      0.00%    100.00% # Request fanout histogram
system.tol2bus.snoop_fanout::8                      0      0.00%    100.00% # Request fanout histogram
system.tol2bus.snoop_fanout::9                      0      0.00%    100.00% # Request fanout histogram
system.tol2bus.snoop_fanout::10                     0      0.00%    100.00% # Request fanout histogram
system.tol2bus.snoop_fanout::11                     0      0.00%    100.00% # Request fanout histogram
system.tol2bus.snoop_fanout::12                     0      0.00%    100.00% # Request fanout histogram
system.tol2bus.snoop_fanout::13                     0      0.00%    100.00% # Request fanout histogram
system.tol2bus.snoop_fanout::14                     0      0.00%    100.00% # Request fanout histogram
system.tol2bus.snoop_fanout::15                     0      0.00%    100.00% # Request fanout histogram
system.tol2bus.snoop_fanout::16                     0      0.00%    100.00% # Request fanout histogram
system.tol2bus.snoop_fanout::17                     0      0.00%    100.00% # Request fanout histogram
system.tol2bus.snoop_fanout::18                     0      0.00%    100.00% # Request fanout histogram
system.tol2bus.snoop_fanout::19                     0      0.00%    100.00% # Request fanout histogram
system.tol2bus.snoop_fanout::20                     0      0.00%    100.00% # Request fanout histogram
system.tol2bus.snoop_fanout::21                     0      0.00%    100.00% # Request fanout histogram
system.tol2bus.snoop_fanout::22                     0      0.00%    100.00% # Request fanout histogram
system.tol2bus.snoop_fanout::23                     0      0.00%    100.00% # Request fanout histogram
system.tol2bus.snoop_fanout::24                     0      0.00%    100.00% # Request fanout histogram
system.tol2bus.snoop_fanout::overflows              0      0.00%    100.00% # Request fanout histogram
system.tol2bus.snoop_fanout::min_value              0                       # Request fanout histogram
system.tol2bus.snoop_fanout::max_value              1                       # Request fanout histogram
system.tol2bus.snoop_fanout::total             499917                       # Request fanout histogram
system.tol2bus.reqLayer0.occupancy          641257000                       # Layer occupancy (ticks)
system.tol2bus.reqLayer0.utilization              4.2                       # Layer utilization (%)
system.tol2bus.respLayer0.occupancy              3000                       # Layer occupancy (ticks)
system.tol2bus.respLayer0.utilization             0.0                       # Layer utilization (%)
system.tol2bus.respLayer1.occupancy         509358000                       # Layer occupancy (ticks)
system.tol2bus.respLayer1.utilization             3.3                       # Layer utilization (%)

---------- End Simulation Statistics   ----------
