
---------- Begin Simulation Statistics ----------
sim_seconds                                  0.015267                       # Number of seconds simulated
sim_ticks                                 15267344125                       # Number of ticks simulated
final_tick                               1328258938875                       # Number of ticks from beginning of simulation (restored from checkpoints and never reset)
sim_freq                                 1000000000000                       # Frequency of simulated ticks
host_inst_rate                               13382575                       # Simulator instruction rate (inst/s)
host_op_rate                                 24517286                       # Simulator op (including micro ops) rate (op/s)
host_tick_rate                               68120984                       # Simulator tick rate (ticks/s)
host_mem_usage                                3428304                       # Number of bytes of host memory used
host_seconds                                   224.12                       # Real time elapsed on the host
sim_insts                                  2999315894                       # Number of instructions simulated
sim_ops                                    5494838777                       # Number of ops (including micro ops) simulated
system.voltage_domain.voltage                       1                       # Voltage in Volts
system.clk_domain.clock                          1000                       # Clock period in ticks
system.mem_ctrls.pwrStateResidencyTicks::UNDEFINED  15267344125                       # Cumulative time (in ticks) in various power states
system.mem_ctrls.bytes_read::cpu0.inst            128                       # Number of bytes read from this memory
system.mem_ctrls.bytes_read::cpu0.data         896384                       # Number of bytes read from this memory
system.mem_ctrls.bytes_read::total             896512                       # Number of bytes read from this memory
system.mem_ctrls.bytes_inst_read::cpu0.inst          128                       # Number of instructions bytes read from this memory
system.mem_ctrls.bytes_inst_read::total           128                       # Number of instructions bytes read from this memory
system.mem_ctrls.bytes_written::writebacks       888256                       # Number of bytes written to this memory
system.mem_ctrls.bytes_written::total          888256                       # Number of bytes written to this memory
system.mem_ctrls.num_reads::cpu0.inst               2                       # Number of read requests responded to by this memory
system.mem_ctrls.num_reads::cpu0.data           14006                       # Number of read requests responded to by this memory
system.mem_ctrls.num_reads::total               14008                       # Number of read requests responded to by this memory
system.mem_ctrls.num_writes::writebacks         13879                       # Number of write requests responded to by this memory
system.mem_ctrls.num_writes::total              13879                       # Number of write requests responded to by this memory
system.mem_ctrls.bw_read::cpu0.inst              8384                       # Total read bandwidth from this memory (bytes/s)
system.mem_ctrls.bw_read::cpu0.data          58712504                       # Total read bandwidth from this memory (bytes/s)
system.mem_ctrls.bw_read::total              58720888                       # Total read bandwidth from this memory (bytes/s)
system.mem_ctrls.bw_inst_read::cpu0.inst         8384                       # Instruction read bandwidth from this memory (bytes/s)
system.mem_ctrls.bw_inst_read::total             8384                       # Instruction read bandwidth from this memory (bytes/s)
system.mem_ctrls.bw_write::writebacks        58180126                       # Write bandwidth from this memory (bytes/s)
system.mem_ctrls.bw_write::total             58180126                       # Write bandwidth from this memory (bytes/s)
system.mem_ctrls.bw_total::writebacks        58180126                       # Total bandwidth to/from this memory (bytes/s)
system.mem_ctrls.bw_total::cpu0.inst             8384                       # Total bandwidth to/from this memory (bytes/s)
system.mem_ctrls.bw_total::cpu0.data         58712504                       # Total bandwidth to/from this memory (bytes/s)
system.mem_ctrls.bw_total::total            116901013                       # Total bandwidth to/from this memory (bytes/s)
system.mem_ctrls.readReqs                       14008                       # Number of read requests accepted
system.mem_ctrls.writeReqs                      13879                       # Number of write requests accepted
system.mem_ctrls.readBursts                     14008                       # Number of DRAM read bursts, including those serviced by the write queue
system.mem_ctrls.writeBursts                    13879                       # Number of DRAM write bursts, including those merged in the write queue
system.mem_ctrls.bytesReadDRAM                 896448                       # Total number of bytes read from DRAM
system.mem_ctrls.bytesReadWrQ                      64                       # Total number of bytes read from write queue
system.mem_ctrls.bytesWritten                  888960                       # Total number of bytes written to DRAM
system.mem_ctrls.bytesReadSys                  896512                       # Total read bytes from the system interface side
system.mem_ctrls.bytesWrittenSys               888256                       # Total written bytes from the system interface side
system.mem_ctrls.servicedByWrQ                      1                       # Number of DRAM read bursts serviced by the write queue
system.mem_ctrls.mergedWrBursts                     0                       # Number of DRAM write bursts merged with an existing one
system.mem_ctrls.neitherReadNorWriteReqs            0                       # Number of requests that are neither read nor write
system.mem_ctrls.perBankRdBursts::0               768                       # Per bank write bursts
system.mem_ctrls.perBankRdBursts::1               768                       # Per bank write bursts
system.mem_ctrls.perBankRdBursts::2               768                       # Per bank write bursts
system.mem_ctrls.perBankRdBursts::3               791                       # Per bank write bursts
system.mem_ctrls.perBankRdBursts::4               844                       # Per bank write bursts
system.mem_ctrls.perBankRdBursts::5               917                       # Per bank write bursts
system.mem_ctrls.perBankRdBursts::6              1024                       # Per bank write bursts
system.mem_ctrls.perBankRdBursts::7              1094                       # Per bank write bursts
system.mem_ctrls.perBankRdBursts::8              1085                       # Per bank write bursts
system.mem_ctrls.perBankRdBursts::9              1047                       # Per bank write bursts
system.mem_ctrls.perBankRdBursts::10              928                       # Per bank write bursts
system.mem_ctrls.perBankRdBursts::11              878                       # Per bank write bursts
system.mem_ctrls.perBankRdBursts::12              768                       # Per bank write bursts
system.mem_ctrls.perBankRdBursts::13              768                       # Per bank write bursts
system.mem_ctrls.perBankRdBursts::14              791                       # Per bank write bursts
system.mem_ctrls.perBankRdBursts::15              768                       # Per bank write bursts
system.mem_ctrls.perBankWrBursts::0               752                       # Per bank write bursts
system.mem_ctrls.perBankWrBursts::1               763                       # Per bank write bursts
system.mem_ctrls.perBankWrBursts::2               733                       # Per bank write bursts
system.mem_ctrls.perBankWrBursts::3               765                       # Per bank write bursts
system.mem_ctrls.perBankWrBursts::4               844                       # Per bank write bursts
system.mem_ctrls.perBankWrBursts::5               933                       # Per bank write bursts
system.mem_ctrls.perBankWrBursts::6              1022                       # Per bank write bursts
system.mem_ctrls.perBankWrBursts::7              1066                       # Per bank write bursts
system.mem_ctrls.perBankWrBursts::8              1086                       # Per bank write bursts
system.mem_ctrls.perBankWrBursts::9              1047                       # Per bank write bursts
system.mem_ctrls.perBankWrBursts::10              926                       # Per bank write bursts
system.mem_ctrls.perBankWrBursts::11              859                       # Per bank write bursts
system.mem_ctrls.perBankWrBursts::12              757                       # Per bank write bursts
system.mem_ctrls.perBankWrBursts::13              767                       # Per bank write bursts
system.mem_ctrls.perBankWrBursts::14              792                       # Per bank write bursts
system.mem_ctrls.perBankWrBursts::15              778                       # Per bank write bursts
system.mem_ctrls.numRdRetry                         0                       # Number of times read queue was full causing retry
system.mem_ctrls.numWrRetry                         0                       # Number of times write queue was full causing retry
system.mem_ctrls.totGap                   15267572000                       # Total gap between requests
system.mem_ctrls.readPktSize::0                     0                       # Read request sizes (log2)
system.mem_ctrls.readPktSize::1                     0                       # Read request sizes (log2)
system.mem_ctrls.readPktSize::2                     0                       # Read request sizes (log2)
system.mem_ctrls.readPktSize::3                     0                       # Read request sizes (log2)
system.mem_ctrls.readPktSize::4                     0                       # Read request sizes (log2)
system.mem_ctrls.readPktSize::5                     0                       # Read request sizes (log2)
system.mem_ctrls.readPktSize::6                 14008                       # Read request sizes (log2)
system.mem_ctrls.writePktSize::0                    0                       # Write request sizes (log2)
system.mem_ctrls.writePktSize::1                    0                       # Write request sizes (log2)
system.mem_ctrls.writePktSize::2                    0                       # Write request sizes (log2)
system.mem_ctrls.writePktSize::3                    0                       # Write request sizes (log2)
system.mem_ctrls.writePktSize::4                    0                       # Write request sizes (log2)
system.mem_ctrls.writePktSize::5                    0                       # Write request sizes (log2)
system.mem_ctrls.writePktSize::6                13879                       # Write request sizes (log2)
system.mem_ctrls.rdQLenPdf::0                   14007                       # What read queue length does an incoming req see
system.mem_ctrls.rdQLenPdf::1                       0                       # What read queue length does an incoming req see
system.mem_ctrls.rdQLenPdf::2                       0                       # What read queue length does an incoming req see
system.mem_ctrls.rdQLenPdf::3                       0                       # What read queue length does an incoming req see
system.mem_ctrls.rdQLenPdf::4                       0                       # What read queue length does an incoming req see
system.mem_ctrls.rdQLenPdf::5                       0                       # What read queue length does an incoming req see
system.mem_ctrls.rdQLenPdf::6                       0                       # What read queue length does an incoming req see
system.mem_ctrls.rdQLenPdf::7                       0                       # What read queue length does an incoming req see
system.mem_ctrls.rdQLenPdf::8                       0                       # What read queue length does an incoming req see
system.mem_ctrls.rdQLenPdf::9                       0                       # What read queue length does an incoming req see
system.mem_ctrls.rdQLenPdf::10                      0                       # What read queue length does an incoming req see
system.mem_ctrls.rdQLenPdf::11                      0                       # What read queue length does an incoming req see
system.mem_ctrls.rdQLenPdf::12                      0                       # What read queue length does an incoming req see
system.mem_ctrls.rdQLenPdf::13                      0                       # What read queue length does an incoming req see
system.mem_ctrls.rdQLenPdf::14                      0                       # What read queue length does an incoming req see
system.mem_ctrls.rdQLenPdf::15                      0                       # What read queue length does an incoming req see
system.mem_ctrls.rdQLenPdf::16                      0                       # What read queue length does an incoming req see
system.mem_ctrls.rdQLenPdf::17                      0                       # What read queue length does an incoming req see
system.mem_ctrls.rdQLenPdf::18                      0                       # What read queue length does an incoming req see
system.mem_ctrls.rdQLenPdf::19                      0                       # What read queue length does an incoming req see
system.mem_ctrls.rdQLenPdf::20                      0                       # What read queue length does an incoming req see
system.mem_ctrls.rdQLenPdf::21                      0                       # What read queue length does an incoming req see
system.mem_ctrls.rdQLenPdf::22                      0                       # What read queue length does an incoming req see
system.mem_ctrls.rdQLenPdf::23                      0                       # What read queue length does an incoming req see
system.mem_ctrls.rdQLenPdf::24                      0                       # What read queue length does an incoming req see
system.mem_ctrls.rdQLenPdf::25                      0                       # What read queue length does an incoming req see
system.mem_ctrls.rdQLenPdf::26                      0                       # What read queue length does an incoming req see
system.mem_ctrls.rdQLenPdf::27                      0                       # What read queue length does an incoming req see
system.mem_ctrls.rdQLenPdf::28                      0                       # What read queue length does an incoming req see
system.mem_ctrls.rdQLenPdf::29                      0                       # What read queue length does an incoming req see
system.mem_ctrls.rdQLenPdf::30                      0                       # What read queue length does an incoming req see
system.mem_ctrls.rdQLenPdf::31                      0                       # What read queue length does an incoming req see
system.mem_ctrls.wrQLenPdf::0                       0                       # What write queue length does an incoming req see
system.mem_ctrls.wrQLenPdf::1                       0                       # What write queue length does an incoming req see
system.mem_ctrls.wrQLenPdf::2                       0                       # What write queue length does an incoming req see
system.mem_ctrls.wrQLenPdf::3                       0                       # What write queue length does an incoming req see
system.mem_ctrls.wrQLenPdf::4                       0                       # What write queue length does an incoming req see
system.mem_ctrls.wrQLenPdf::5                       0                       # What write queue length does an incoming req see
system.mem_ctrls.wrQLenPdf::6                       0                       # What write queue length does an incoming req see
system.mem_ctrls.wrQLenPdf::7                       0                       # What write queue length does an incoming req see
system.mem_ctrls.wrQLenPdf::8                       0                       # What write queue length does an incoming req see
system.mem_ctrls.wrQLenPdf::9                       0                       # What write queue length does an incoming req see
system.mem_ctrls.wrQLenPdf::10                      0                       # What write queue length does an incoming req see
system.mem_ctrls.wrQLenPdf::11                      0                       # What write queue length does an incoming req see
system.mem_ctrls.wrQLenPdf::12                      0                       # What write queue length does an incoming req see
system.mem_ctrls.wrQLenPdf::13                      0                       # What write queue length does an incoming req see
system.mem_ctrls.wrQLenPdf::14                      0                       # What write queue length does an incoming req see
system.mem_ctrls.wrQLenPdf::15                    761                       # What write queue length does an incoming req see
system.mem_ctrls.wrQLenPdf::16                    761                       # What write queue length does an incoming req see
system.mem_ctrls.wrQLenPdf::17                    773                       # What write queue length does an incoming req see
system.mem_ctrls.wrQLenPdf::18                    773                       # What write queue length does an incoming req see
system.mem_ctrls.wrQLenPdf::19                    772                       # What write queue length does an incoming req see
system.mem_ctrls.wrQLenPdf::20                    772                       # What write queue length does an incoming req see
system.mem_ctrls.wrQLenPdf::21                    772                       # What write queue length does an incoming req see
system.mem_ctrls.wrQLenPdf::22                    772                       # What write queue length does an incoming req see
system.mem_ctrls.wrQLenPdf::23                    772                       # What write queue length does an incoming req see
system.mem_ctrls.wrQLenPdf::24                    772                       # What write queue length does an incoming req see
system.mem_ctrls.wrQLenPdf::25                    772                       # What write queue length does an incoming req see
system.mem_ctrls.wrQLenPdf::26                    772                       # What write queue length does an incoming req see
system.mem_ctrls.wrQLenPdf::27                    772                       # What write queue length does an incoming req see
system.mem_ctrls.wrQLenPdf::28                    772                       # What write queue length does an incoming req see
system.mem_ctrls.wrQLenPdf::29                    772                       # What write queue length does an incoming req see
system.mem_ctrls.wrQLenPdf::30                    773                       # What write queue length does an incoming req see
system.mem_ctrls.wrQLenPdf::31                    773                       # What write queue length does an incoming req see
system.mem_ctrls.wrQLenPdf::32                    773                       # What write queue length does an incoming req see
system.mem_ctrls.wrQLenPdf::33                      0                       # What write queue length does an incoming req see
system.mem_ctrls.wrQLenPdf::34                      0                       # What write queue length does an incoming req see
system.mem_ctrls.wrQLenPdf::35                      0                       # What write queue length does an incoming req see
system.mem_ctrls.wrQLenPdf::36                      0                       # What write queue length does an incoming req see
system.mem_ctrls.wrQLenPdf::37                      0                       # What write queue length does an incoming req see
system.mem_ctrls.wrQLenPdf::38                      0                       # What write queue length does an incoming req see
system.mem_ctrls.wrQLenPdf::39                      0                       # What write queue length does an incoming req see
system.mem_ctrls.wrQLenPdf::40                      0                       # What write queue length does an incoming req see
system.mem_ctrls.wrQLenPdf::41                      0                       # What write queue length does an incoming req see
system.mem_ctrls.wrQLenPdf::42                      0                       # What write queue length does an incoming req see
system.mem_ctrls.wrQLenPdf::43                      0                       # What write queue length does an incoming req see
system.mem_ctrls.wrQLenPdf::44                      0                       # What write queue length does an incoming req see
system.mem_ctrls.wrQLenPdf::45                      0                       # What write queue length does an incoming req see
system.mem_ctrls.wrQLenPdf::46                      0                       # What write queue length does an incoming req see
system.mem_ctrls.wrQLenPdf::47                      0                       # What write queue length does an incoming req see
system.mem_ctrls.wrQLenPdf::48                      0                       # What write queue length does an incoming req see
system.mem_ctrls.wrQLenPdf::49                      0                       # What write queue length does an incoming req see
system.mem_ctrls.wrQLenPdf::50                      0                       # What write queue length does an incoming req see
system.mem_ctrls.wrQLenPdf::51                      0                       # What write queue length does an incoming req see
system.mem_ctrls.wrQLenPdf::52                      0                       # What write queue length does an incoming req see
system.mem_ctrls.wrQLenPdf::53                      0                       # What write queue length does an incoming req see
system.mem_ctrls.wrQLenPdf::54                      0                       # What write queue length does an incoming req see
system.mem_ctrls.wrQLenPdf::55                      0                       # What write queue length does an incoming req see
system.mem_ctrls.wrQLenPdf::56                      0                       # What write queue length does an incoming req see
system.mem_ctrls.wrQLenPdf::57                      0                       # What write queue length does an incoming req see
system.mem_ctrls.wrQLenPdf::58                      0                       # What write queue length does an incoming req see
system.mem_ctrls.wrQLenPdf::59                      0                       # What write queue length does an incoming req see
system.mem_ctrls.wrQLenPdf::60                      0                       # What write queue length does an incoming req see
system.mem_ctrls.wrQLenPdf::61                      0                       # What write queue length does an incoming req see
system.mem_ctrls.wrQLenPdf::62                      0                       # What write queue length does an incoming req see
system.mem_ctrls.wrQLenPdf::63                      0                       # What write queue length does an incoming req see
system.mem_ctrls.bytesPerActivate::samples         5712                       # Bytes accessed per row activation
system.mem_ctrls.bytesPerActivate::mean    312.504202                       # Bytes accessed per row activation
system.mem_ctrls.bytesPerActivate::gmean   194.681031                       # Bytes accessed per row activation
system.mem_ctrls.bytesPerActivate::stdev   302.569533                       # Bytes accessed per row activation
system.mem_ctrls.bytesPerActivate::0-127         2102     36.80%     36.80% # Bytes accessed per row activation
system.mem_ctrls.bytesPerActivate::128-255          833     14.58%     51.38% # Bytes accessed per row activation
system.mem_ctrls.bytesPerActivate::256-383          565      9.89%     61.27% # Bytes accessed per row activation
system.mem_ctrls.bytesPerActivate::384-511         1419     24.84%     86.12% # Bytes accessed per row activation
system.mem_ctrls.bytesPerActivate::512-639           32      0.56%     86.68% # Bytes accessed per row activation
system.mem_ctrls.bytesPerActivate::640-767           44      0.77%     87.45% # Bytes accessed per row activation
system.mem_ctrls.bytesPerActivate::768-895           37      0.65%     88.10% # Bytes accessed per row activation
system.mem_ctrls.bytesPerActivate::896-1023           71      1.24%     89.34% # Bytes accessed per row activation
system.mem_ctrls.bytesPerActivate::1024-1151          609     10.66%    100.00% # Bytes accessed per row activation
system.mem_ctrls.bytesPerActivate::total         5712                       # Bytes accessed per row activation
system.mem_ctrls.rdPerTurnAround::samples          773                       # Reads before turning the bus around for writes
system.mem_ctrls.rdPerTurnAround::mean      18.134541                       # Reads before turning the bus around for writes
system.mem_ctrls.rdPerTurnAround::gmean     18.096216                       # Reads before turning the bus around for writes
system.mem_ctrls.rdPerTurnAround::stdev      1.564671                       # Reads before turning the bus around for writes
system.mem_ctrls.rdPerTurnAround::16-17            13      1.68%      1.68% # Reads before turning the bus around for writes
system.mem_ctrls.rdPerTurnAround::18-19           745     96.38%     98.06% # Reads before turning the bus around for writes
system.mem_ctrls.rdPerTurnAround::20-21            10      1.29%     99.35% # Reads before turning the bus around for writes
system.mem_ctrls.rdPerTurnAround::22-23             2      0.26%     99.61% # Reads before turning the bus around for writes
system.mem_ctrls.rdPerTurnAround::30-31             1      0.13%     99.74% # Reads before turning the bus around for writes
system.mem_ctrls.rdPerTurnAround::44-45             1      0.13%     99.87% # Reads before turning the bus around for writes
system.mem_ctrls.rdPerTurnAround::46-47             1      0.13%    100.00% # Reads before turning the bus around for writes
system.mem_ctrls.rdPerTurnAround::total           773                       # Reads before turning the bus around for writes
system.mem_ctrls.wrPerTurnAround::samples          773                       # Writes before turning the bus around for reads
system.mem_ctrls.wrPerTurnAround::mean      17.968952                       # Writes before turning the bus around for reads
system.mem_ctrls.wrPerTurnAround::gmean     17.967118                       # Writes before turning the bus around for reads
system.mem_ctrls.wrPerTurnAround::stdev      0.247408                       # Writes before turning the bus around for reads
system.mem_ctrls.wrPerTurnAround::16               12      1.55%      1.55% # Writes before turning the bus around for reads
system.mem_ctrls.wrPerTurnAround::18              761     98.45%    100.00% # Writes before turning the bus around for reads
system.mem_ctrls.wrPerTurnAround::total           773                       # Writes before turning the bus around for reads
system.mem_ctrls.totQLat                    343158250                       # Total ticks spent queuing
system.mem_ctrls.totMemAccLat               605789500                       # Total ticks spent from burst creation until serviced by the DRAM
system.mem_ctrls.totBusLat                   70035000                       # Total ticks spent in databus transfers
system.mem_ctrls.avgQLat                     24499.05                       # Average queueing delay per DRAM burst
system.mem_ctrls.avgBusLat                    5000.00                       # Average bus latency per DRAM burst
system.mem_ctrls.avgMemAccLat                43249.05                       # Average memory access latency per DRAM burst
system.mem_ctrls.avgRdBW                        58.72                       # Average DRAM read bandwidth in MiByte/s
system.mem_ctrls.avgWrBW                        58.23                       # Average achieved write bandwidth in MiByte/s
system.mem_ctrls.avgRdBWSys                     58.72                       # Average system read bandwidth in MiByte/s
system.mem_ctrls.avgWrBWSys                     58.18                       # Average system write bandwidth in MiByte/s
system.mem_ctrls.peakBW                      12800.00                       # Theoretical peak bandwidth in MiByte/s
system.mem_ctrls.busUtil                         0.91                       # Data bus utilization in percentage
system.mem_ctrls.busUtilRead                     0.46                       # Data bus utilization in percentage for reads
system.mem_ctrls.busUtilWrite                    0.45                       # Data bus utilization in percentage for writes
system.mem_ctrls.avgRdQLen                       1.00                       # Average read queue length when enqueuing
system.mem_ctrls.avgWrQLen                      24.56                       # Average write queue length when enqueuing
system.mem_ctrls.readRowHits                    10338                       # Number of row buffer hits during reads
system.mem_ctrls.writeRowHits                   11844                       # Number of row buffer hits during writes
system.mem_ctrls.readRowHitRate                 73.81                       # Row buffer hit rate for reads
system.mem_ctrls.writeRowHitRate                85.34                       # Row buffer hit rate for writes
system.mem_ctrls.avgGap                     547479.90                       # Average gap between requests
system.mem_ctrls.pageHitRate                    79.55                       # Row buffer hit rate, read and write combined
system.mem_ctrls_0.actEnergy                 21098700                       # Energy for activate commands per rank (pJ)
system.mem_ctrls_0.preEnergy                 11214225                       # Energy for precharge commands per rank (pJ)
system.mem_ctrls_0.readEnergy                49794360                       # Energy for read commands per rank (pJ)
system.mem_ctrls_0.writeEnergy               35903160                       # Energy for write commands per rank (pJ)
system.mem_ctrls_0.refreshEnergy         1167201360.000000                       # Energy for refresh commands per rank (pJ)
system.mem_ctrls_0.actBackEnergy            761730330                       # Energy for active background per rank (pJ)
system.mem_ctrls_0.preBackEnergy             54318240                       # Energy for precharge background per rank (pJ)
system.mem_ctrls_0.actPowerDownEnergy      3467051220                       # Energy for active power-down per rank (pJ)
system.mem_ctrls_0.prePowerDownEnergy      1251948000                       # Energy for precharge power-down per rank (pJ)
system.mem_ctrls_0.selfRefreshEnergy        783325980                       # Energy for self refresh per rank (pJ)
system.mem_ctrls_0.totalEnergy             7603883145                       # Total energy per rank (pJ)
system.mem_ctrls_0.averagePower            498.048847                       # Core power per rank (mW)
system.mem_ctrls_0.totalIdleTime          13232301500                       # Total Idle time Per DRAM Rank
system.mem_ctrls_0.memoryStateTime::IDLE     89869250                       # Time in different power states
system.mem_ctrls_0.memoryStateTime::REF     495528000                       # Time in different power states
system.mem_ctrls_0.memoryStateTime::SREF   2591301125                       # Time in different power states
system.mem_ctrls_0.memoryStateTime::PRE_PDN   3260349000                       # Time in different power states
system.mem_ctrls_0.memoryStateTime::ACT    1226989000                       # Time in different power states
system.mem_ctrls_0.memoryStateTime::ACT_PDN   7603307750                       # Time in different power states
system.mem_ctrls_1.actEnergy                 19706400                       # Energy for activate commands per rank (pJ)
system.mem_ctrls_1.preEnergy                 10462815                       # Energy for precharge commands per rank (pJ)
system.mem_ctrls_1.readEnergy                50215620                       # Energy for read commands per rank (pJ)
system.mem_ctrls_1.writeEnergy               36602640                       # Energy for write commands per rank (pJ)
system.mem_ctrls_1.refreshEnergy         1077463920.000000                       # Energy for refresh commands per rank (pJ)
system.mem_ctrls_1.actBackEnergy            620566980                       # Energy for active background per rank (pJ)
system.mem_ctrls_1.preBackEnergy             50640960                       # Energy for precharge background per rank (pJ)
system.mem_ctrls_1.actPowerDownEnergy      3368123730                       # Energy for active power-down per rank (pJ)
system.mem_ctrls_1.prePowerDownEnergy      1081983840                       # Energy for precharge power-down per rank (pJ)
system.mem_ctrls_1.selfRefreshEnergy       1005513960                       # Energy for self refresh per rank (pJ)
system.mem_ctrls_1.totalEnergy             7321565745                       # Total energy per rank (pJ)
system.mem_ctrls_1.averagePower            479.557262                       # Core power per rank (mW)
system.mem_ctrls_1.totalIdleTime          13773292750                       # Total Idle time Per DRAM Rank
system.mem_ctrls_1.memoryStateTime::IDLE     81365000                       # Time in different power states
system.mem_ctrls_1.memoryStateTime::REF     457394000                       # Time in different power states
system.mem_ctrls_1.memoryStateTime::SREF   3570042000                       # Time in different power states
system.mem_ctrls_1.memoryStateTime::PRE_PDN   2817833750                       # Time in different power states
system.mem_ctrls_1.memoryStateTime::ACT     954467250                       # Time in different power states
system.mem_ctrls_1.memoryStateTime::ACT_PDN   7386242125                       # Time in different power states
system.pwrStateResidencyTicks::UNDEFINED  15267344125                       # Cumulative time (in ticks) in various power states
system.cpu0.branchPred.lookups                5260619                       # Number of BP lookups
system.cpu0.branchPred.condPredicted          5260619                       # Number of conditional branches predicted
system.cpu0.branchPred.condIncorrect           109192                       # Number of conditional branches incorrect
system.cpu0.branchPred.BTBLookups             3581389                       # Number of BTB lookups
system.cpu0.branchPred.BTBHits                      0                       # Number of BTB hits
system.cpu0.branchPred.BTBCorrect                   0                       # Number of correct BTB predictions (this stat may not work properly.
system.cpu0.branchPred.BTBHitPct             0.000000                       # BTB Hit Percentage
system.cpu0.branchPred.usedRAS                 732373                       # Number of times the RAS was used to get a target.
system.cpu0.branchPred.RASInCorrect                 5                       # Number of incorrect RAS predictions.
system.cpu0.branchPred.indirectLookups        3581389                       # Number of indirect predictor lookups.
system.cpu0.branchPred.indirectHits           2521470                       # Number of indirect target hits.
system.cpu0.branchPred.indirectMisses         1059919                       # Number of indirect misses.
system.cpu0.branchPredindirectMispredicted           14                       # Number of mispredicted indirect branches.
system.cpu_voltage_domain.voltage                   1                       # Voltage in Volts
system.cpu_clk_domain.clock                       500                       # Clock period in ticks
system.cpu0.dtb.walker.pwrStateResidencyTicks::UNDEFINED  15267344125                       # Cumulative time (in ticks) in various power states
system.cpu0.dtb.rdAccesses                    8930359                       # TLB accesses on read requests
system.cpu0.dtb.wrAccesses                    2097714                       # TLB accesses on write requests
system.cpu0.dtb.rdMisses                          231                       # TLB misses on read requests
system.cpu0.dtb.wrMisses                            0                       # TLB misses on write requests
system.cpu0.apic_clk_domain.clock                8000                       # Clock period in ticks
system.cpu0.interrupts.pwrStateResidencyTicks::UNDEFINED  15267344125                       # Cumulative time (in ticks) in various power states
system.cpu0.itb.walker.pwrStateResidencyTicks::UNDEFINED  15267344125                       # Cumulative time (in ticks) in various power states
system.cpu0.itb.rdAccesses                          0                       # TLB accesses on read requests
system.cpu0.itb.wrAccesses                    6287636                       # TLB accesses on write requests
system.cpu0.itb.rdMisses                            0                       # TLB misses on read requests
system.cpu0.itb.wrMisses                            0                       # TLB misses on write requests
system.cpu0.workload.numSyscalls                    0                       # Number of system calls
system.cpu0.pwrStateResidencyTicks::ON    15267344125                       # Cumulative time (in ticks) in various power states
system.cpu0.numCycles                        30534688                       # number of cpu cycles simulated
system.cpu0.numWorkItemsStarted                     0                       # number of work items this cpu started
system.cpu0.numWorkItemsCompleted                   0                       # number of work items this cpu completed
system.cpu0.fetch.icacheStallCycles           6340454                       # Number of cycles fetch is stalled on an Icache miss
system.cpu0.fetch.Insts                      46501463                       # Number of instructions fetch has processed
system.cpu0.fetch.Branches                    5260619                       # Number of branches that fetch encountered
system.cpu0.fetch.predictedBranches           3253843                       # Number of branches that fetch has predicted taken
system.cpu0.fetch.Cycles                     24084939                       # Number of cycles fetch has run and was not squashing or blocked
system.cpu0.fetch.SquashCycles                 218590                       # Number of cycles fetch has spent squashing
system.cpu0.fetch.CacheLines                  6287636                       # Number of cache lines fetched
system.cpu0.fetch.IcacheSquashes                56456                       # Number of outstanding Icache misses that were squashed
system.cpu0.fetch.rateDist::samples          30534688                       # Number of instructions fetched each cycle (Total)
system.cpu0.fetch.rateDist::mean             2.661028                       # Number of instructions fetched each cycle (Total)
system.cpu0.fetch.rateDist::stdev            3.373436                       # Number of instructions fetched each cycle (Total)
system.cpu0.fetch.rateDist::underflows              0      0.00%      0.00% # Number of instructions fetched each cycle (Total)
system.cpu0.fetch.rateDist::0                16762852     54.90%     54.90% # Number of instructions fetched each cycle (Total)
system.cpu0.fetch.rateDist::1                  747499      2.45%     57.35% # Number of instructions fetched each cycle (Total)
system.cpu0.fetch.rateDist::2                 1661368      5.44%     62.79% # Number of instructions fetched each cycle (Total)
system.cpu0.fetch.rateDist::3                  652953      2.14%     64.93% # Number of instructions fetched each cycle (Total)
system.cpu0.fetch.rateDist::4                  959020      3.14%     68.07% # Number of instructions fetched each cycle (Total)
system.cpu0.fetch.rateDist::5                 1532692      5.02%     73.09% # Number of instructions fetched each cycle (Total)
system.cpu0.fetch.rateDist::6                  561850      1.84%     74.93% # Number of instructions fetched each cycle (Total)
system.cpu0.fetch.rateDist::7                  897720      2.94%     77.87% # Number of instructions fetched each cycle (Total)
system.cpu0.fetch.rateDist::8                 6758734     22.13%    100.00% # Number of instructions fetched each cycle (Total)
system.cpu0.fetch.rateDist::overflows               0      0.00%    100.00% # Number of instructions fetched each cycle (Total)
system.cpu0.fetch.rateDist::min_value               0                       # Number of instructions fetched each cycle (Total)
system.cpu0.fetch.rateDist::max_value               8                       # Number of instructions fetched each cycle (Total)
system.cpu0.fetch.rateDist::total            30534688                       # Number of instructions fetched each cycle (Total)
system.cpu0.fetch.branchRate                 0.172283                       # Number of branch fetches per cycle
system.cpu0.fetch.rate                       1.522906                       # Number of inst fetches per cycle
system.cpu0.decode.IdleCycles                 4141824                       # Number of cycles decode is idle
system.cpu0.decode.BlockedCycles             15727355                       # Number of cycles decode is blocked
system.cpu0.decode.RunCycles                  6232033                       # Number of cycles decode is running
system.cpu0.decode.UnblockCycles              4324181                       # Number of cycles decode is unblocking
system.cpu0.decode.SquashCycles                109295                       # Number of cycles decode is squashing
system.cpu0.decode.DecodedInsts              77674080                       # Number of instructions handled by decode
system.cpu0.rename.SquashCycles                109295                       # Number of cycles rename is squashing
system.cpu0.rename.IdleCycles                 5848915                       # Number of cycles rename is idle
system.cpu0.rename.BlockCycles                5653432                       # Number of cycles rename is blocking
system.cpu0.rename.serializeStallCycles             0                       # count of cycles rename stalled for serializing inst
system.cpu0.rename.RunCycles                  8790383                       # Number of cycles rename is running
system.cpu0.rename.UnblockCycles             10132663                       # Number of cycles rename is unblocking
system.cpu0.rename.RenamedInsts              77189574                       # Number of instructions processed by rename
system.cpu0.rename.ROBFullEvents               196368                       # Number of times rename has blocked due to ROB full
system.cpu0.rename.IQFullEvents               9061339                       # Number of times rename has blocked due to IQ full
system.cpu0.rename.LQFullEvents                    22                       # Number of times rename has blocked due to LQ full
system.cpu0.rename.RenamedOperands           83040342                       # Number of destination operands rename has renamed
system.cpu0.rename.RenameLookups            183348367                       # Number of register rename lookups that rename has made
system.cpu0.rename.int_rename_lookups        60341749                       # Number of integer rename lookups
system.cpu0.rename.fp_rename_lookups         75264106                       # Number of floating rename lookups
system.cpu0.rename.CommittedMaps             70497126                       # Number of HB maps that are committed
system.cpu0.rename.UndoneMaps                12543261                       # Number of HB maps that are undone due to squashing
system.cpu0.rename.serializingInsts                 0                       # count of serializing insts renamed
system.cpu0.rename.tempSerializingInsts             0                       # count of temporary serializing insts renamed
system.cpu0.rename.skidInsts                 23269645                       # count of insts added to the skid buffer
system.cpu0.memDep0.insertedLoads             9526576                       # Number of loads inserted to the mem dependence unit.
system.cpu0.memDep0.insertedStores            2100084                       # Number of stores inserted to the mem dependence unit.
system.cpu0.memDep0.conflictingLoads           425387                       # Number of conflicting loads.
system.cpu0.memDep0.conflictingStores          163780                       # Number of conflicting stores.
system.cpu0.iq.iqInstsAdded                  76513459                       # Number of instructions added to the IQ (excludes non-spec)
system.cpu0.iq.iqInstsIssued                 70822854                       # Number of instructions issued
system.cpu0.iq.iqSquashedInstsIssued                2                       # Number of squashed instructions issued
system.cpu0.iq.iqSquashedInstsExamined       10631747                       # Number of squashed instructions iterated over during squash; mainly for profiling
system.cpu0.iq.iqSquashedOperandsExamined     15314565                       # Number of squashed operands that are examined and possibly removed from graph
system.cpu0.iq.issued_per_cycle::samples     30534688                       # Number of insts issued each cycle
system.cpu0.iq.issued_per_cycle::mean        2.319423                       # Number of insts issued each cycle
system.cpu0.iq.issued_per_cycle::stdev       1.956607                       # Number of insts issued each cycle
system.cpu0.iq.issued_per_cycle::underflows            0      0.00%      0.00% # Number of insts issued each cycle
system.cpu0.iq.issued_per_cycle::0            6314844     20.68%     20.68% # Number of insts issued each cycle
system.cpu0.iq.issued_per_cycle::1            6131235     20.08%     40.76% # Number of insts issued each cycle
system.cpu0.iq.issued_per_cycle::2            5660695     18.54%     59.30% # Number of insts issued each cycle
system.cpu0.iq.issued_per_cycle::3            4854680     15.90%     75.20% # Number of insts issued each cycle
system.cpu0.iq.issued_per_cycle::4            2963025      9.70%     84.90% # Number of insts issued each cycle
system.cpu0.iq.issued_per_cycle::5            1977880      6.48%     91.38% # Number of insts issued each cycle
system.cpu0.iq.issued_per_cycle::6            1641469      5.38%     96.75% # Number of insts issued each cycle
system.cpu0.iq.issued_per_cycle::7             711005      2.33%     99.08% # Number of insts issued each cycle
system.cpu0.iq.issued_per_cycle::8             279855      0.92%    100.00% # Number of insts issued each cycle
system.cpu0.iq.issued_per_cycle::overflows            0      0.00%    100.00% # Number of insts issued each cycle
system.cpu0.iq.issued_per_cycle::min_value            0                       # Number of insts issued each cycle
system.cpu0.iq.issued_per_cycle::max_value            8                       # Number of insts issued each cycle
system.cpu0.iq.issued_per_cycle::total       30534688                       # Number of insts issued each cycle
system.cpu0.iq.fu_full::No_OpClass                  0      0.00%      0.00% # attempts to use FU when none available
system.cpu0.iq.fu_full::IntAlu                     18      0.02%      0.02% # attempts to use FU when none available
system.cpu0.iq.fu_full::IntMult                     0      0.00%      0.02% # attempts to use FU when none available
system.cpu0.iq.fu_full::IntDiv                      0      0.00%      0.02% # attempts to use FU when none available
system.cpu0.iq.fu_full::FloatAdd               106702     99.81%     99.83% # attempts to use FU when none available
system.cpu0.iq.fu_full::FloatCmp                    0      0.00%     99.83% # attempts to use FU when none available
system.cpu0.iq.fu_full::FloatCvt                    0      0.00%     99.83% # attempts to use FU when none available
system.cpu0.iq.fu_full::FloatMult                   0      0.00%     99.83% # attempts to use FU when none available
system.cpu0.iq.fu_full::FloatMultAcc                0      0.00%     99.83% # attempts to use FU when none available
system.cpu0.iq.fu_full::FloatDiv                    0      0.00%     99.83% # attempts to use FU when none available
system.cpu0.iq.fu_full::FloatMisc                   0      0.00%     99.83% # attempts to use FU when none available
system.cpu0.iq.fu_full::FloatSqrt                   0      0.00%     99.83% # attempts to use FU when none available
system.cpu0.iq.fu_full::SimdAdd                     0      0.00%     99.83% # attempts to use FU when none available
system.cpu0.iq.fu_full::SimdAddAcc                  0      0.00%     99.83% # attempts to use FU when none available
system.cpu0.iq.fu_full::SimdAlu                     0      0.00%     99.83% # attempts to use FU when none available
system.cpu0.iq.fu_full::SimdCmp                     0      0.00%     99.83% # attempts to use FU when none available
system.cpu0.iq.fu_full::SimdCvt                     0      0.00%     99.83% # attempts to use FU when none available
system.cpu0.iq.fu_full::SimdMisc                    0      0.00%     99.83% # attempts to use FU when none available
system.cpu0.iq.fu_full::SimdMult                    0      0.00%     99.83% # attempts to use FU when none available
system.cpu0.iq.fu_full::SimdMultAcc                 0      0.00%     99.83% # attempts to use FU when none available
system.cpu0.iq.fu_full::SimdShift                   0      0.00%     99.83% # attempts to use FU when none available
system.cpu0.iq.fu_full::SimdShiftAcc                0      0.00%     99.83% # attempts to use FU when none available
system.cpu0.iq.fu_full::SimdSqrt                    0      0.00%     99.83% # attempts to use FU when none available
system.cpu0.iq.fu_full::SimdFloatAdd                0      0.00%     99.83% # attempts to use FU when none available
system.cpu0.iq.fu_full::SimdFloatAlu                0      0.00%     99.83% # attempts to use FU when none available
system.cpu0.iq.fu_full::SimdFloatCmp                0      0.00%     99.83% # attempts to use FU when none available
system.cpu0.iq.fu_full::SimdFloatCvt                0      0.00%     99.83% # attempts to use FU when none available
system.cpu0.iq.fu_full::SimdFloatDiv                0      0.00%     99.83% # attempts to use FU when none available
system.cpu0.iq.fu_full::SimdFloatMisc               0      0.00%     99.83% # attempts to use FU when none available
system.cpu0.iq.fu_full::SimdFloatMult               0      0.00%     99.83% # attempts to use FU when none available
system.cpu0.iq.fu_full::SimdFloatMultAcc            0      0.00%     99.83% # attempts to use FU when none available
system.cpu0.iq.fu_full::SimdFloatSqrt               0      0.00%     99.83% # attempts to use FU when none available
system.cpu0.iq.fu_full::MemRead                   182      0.17%    100.00% # attempts to use FU when none available
system.cpu0.iq.fu_full::MemWrite                    0      0.00%    100.00% # attempts to use FU when none available
system.cpu0.iq.fu_full::FloatMemRead                0      0.00%    100.00% # attempts to use FU when none available
system.cpu0.iq.fu_full::FloatMemWrite               0      0.00%    100.00% # attempts to use FU when none available
system.cpu0.iq.fu_full::IprAccess                   0      0.00%    100.00% # attempts to use FU when none available
system.cpu0.iq.fu_full::InstPrefetch                0      0.00%    100.00% # attempts to use FU when none available
system.cpu0.iq.FU_type_0::No_OpClass             6214      0.01%      0.01% # Type of FU issued
system.cpu0.iq.FU_type_0::IntAlu             36845848     52.03%     52.03% # Type of FU issued
system.cpu0.iq.FU_type_0::IntMult                   0      0.00%     52.03% # Type of FU issued
system.cpu0.iq.FU_type_0::IntDiv                    0      0.00%     52.03% # Type of FU issued
system.cpu0.iq.FU_type_0::FloatAdd           22967159     32.43%     84.46% # Type of FU issued
system.cpu0.iq.FU_type_0::FloatCmp                  0      0.00%     84.46% # Type of FU issued
system.cpu0.iq.FU_type_0::FloatCvt                  0      0.00%     84.46% # Type of FU issued
system.cpu0.iq.FU_type_0::FloatMult                 0      0.00%     84.46% # Type of FU issued
system.cpu0.iq.FU_type_0::FloatMultAcc              0      0.00%     84.46% # Type of FU issued
system.cpu0.iq.FU_type_0::FloatDiv                  0      0.00%     84.46% # Type of FU issued
system.cpu0.iq.FU_type_0::FloatMisc                 0      0.00%     84.46% # Type of FU issued
system.cpu0.iq.FU_type_0::FloatSqrt                 0      0.00%     84.46% # Type of FU issued
system.cpu0.iq.FU_type_0::SimdAdd                   0      0.00%     84.46% # Type of FU issued
system.cpu0.iq.FU_type_0::SimdAddAcc                0      0.00%     84.46% # Type of FU issued
system.cpu0.iq.FU_type_0::SimdAlu                   0      0.00%     84.46% # Type of FU issued
system.cpu0.iq.FU_type_0::SimdCmp                   0      0.00%     84.46% # Type of FU issued
system.cpu0.iq.FU_type_0::SimdCvt                   0      0.00%     84.46% # Type of FU issued
system.cpu0.iq.FU_type_0::SimdMisc                  0      0.00%     84.46% # Type of FU issued
system.cpu0.iq.FU_type_0::SimdMult                  0      0.00%     84.46% # Type of FU issued
system.cpu0.iq.FU_type_0::SimdMultAcc               0      0.00%     84.46% # Type of FU issued
system.cpu0.iq.FU_type_0::SimdShift                 0      0.00%     84.46% # Type of FU issued
system.cpu0.iq.FU_type_0::SimdShiftAcc              0      0.00%     84.46% # Type of FU issued
system.cpu0.iq.FU_type_0::SimdSqrt                  0      0.00%     84.46% # Type of FU issued
system.cpu0.iq.FU_type_0::SimdFloatAdd              0      0.00%     84.46% # Type of FU issued
system.cpu0.iq.FU_type_0::SimdFloatAlu              0      0.00%     84.46% # Type of FU issued
system.cpu0.iq.FU_type_0::SimdFloatCmp              0      0.00%     84.46% # Type of FU issued
system.cpu0.iq.FU_type_0::SimdFloatCvt              0      0.00%     84.46% # Type of FU issued
system.cpu0.iq.FU_type_0::SimdFloatDiv              0      0.00%     84.46% # Type of FU issued
system.cpu0.iq.FU_type_0::SimdFloatMisc             0      0.00%     84.46% # Type of FU issued
system.cpu0.iq.FU_type_0::SimdFloatMult             0      0.00%     84.46% # Type of FU issued
system.cpu0.iq.FU_type_0::SimdFloatMultAcc            0      0.00%     84.46% # Type of FU issued
system.cpu0.iq.FU_type_0::SimdFloatSqrt             0      0.00%     84.46% # Type of FU issued
system.cpu0.iq.FU_type_0::MemRead             1957987      2.76%     87.23% # Type of FU issued
system.cpu0.iq.FU_type_0::MemWrite            1471495      2.08%     89.31% # Type of FU issued
system.cpu0.iq.FU_type_0::FloatMemRead        6947314      9.81%     99.11% # Type of FU issued
system.cpu0.iq.FU_type_0::FloatMemWrite        626837      0.89%    100.00% # Type of FU issued
system.cpu0.iq.FU_type_0::IprAccess                 0      0.00%    100.00% # Type of FU issued
system.cpu0.iq.FU_type_0::InstPrefetch              0      0.00%    100.00% # Type of FU issued
system.cpu0.iq.FU_type_0::total              70822854                       # Type of FU issued
system.cpu0.iq.rate                          2.319423                       # Inst issue rate
system.cpu0.iq.fu_busy_cnt                     106902                       # FU busy when requested
system.cpu0.iq.fu_busy_rate                  0.001509                       # FU busy rate (busy events/executed inst)
system.cpu0.iq.int_inst_queue_reads          97539577                       # Number of integer instruction queue reads
system.cpu0.iq.int_inst_queue_writes         37569609                       # Number of integer instruction queue writes
system.cpu0.iq.int_inst_queue_wakeup_accesses     33439253                       # Number of integer instruction queue wakeup accesses
system.cpu0.iq.fp_inst_queue_reads           74747718                       # Number of floating instruction queue reads
system.cpu0.iq.fp_inst_queue_writes          49575700                       # Number of floating instruction queue writes
system.cpu0.iq.fp_inst_queue_wakeup_accesses     37176621                       # Number of floating instruction queue wakeup accesses
system.cpu0.iq.vec_inst_queue_reads                 0                       # Number of vector instruction queue reads
system.cpu0.iq.vec_inst_queue_writes                0                       # Number of vector instruction queue writes
system.cpu0.iq.vec_inst_queue_wakeup_accesses            0                       # Number of vector instruction queue wakeup accesses
system.cpu0.iq.int_alu_accesses              33496324                       # Number of integer alu accesses
system.cpu0.iq.fp_alu_accesses               37427218                       # Number of floating point alu accesses
system.cpu0.iq.vec_alu_accesses                     0                       # Number of vector alu accesses
system.cpu0.iew.lsq.thread0.forwLoads          419108                       # Number of loads that had data forwarded from stores
system.cpu0.iew.lsq.thread0.invAddrLoads            0                       # Number of loads ignored due to an invalid address
system.cpu0.iew.lsq.thread0.squashedLoads      1412849                       # Number of loads squashed
system.cpu0.iew.lsq.thread0.ignoredResponses            8                       # Number of memory responses ignored because the instruction is squashed
system.cpu0.iew.lsq.thread0.memOrderViolation          103                       # Number of memory ordering violations
system.cpu0.iew.lsq.thread0.squashedStores         3604                       # Number of stores squashed
system.cpu0.iew.lsq.thread0.invAddrSwpfs            0                       # Number of software prefetches ignored due to an invalid address
system.cpu0.iew.lsq.thread0.blockedLoads            0                       # Number of blocked loads due to partial load-store forwarding
system.cpu0.iew.lsq.thread0.rescheduledLoads            0                       # Number of loads that were rescheduled
system.cpu0.iew.lsq.thread0.cacheBlocked            0                       # Number of times an access to memory failed due to the cache being blocked
system.cpu0.iew.iewIdleCycles                       0                       # Number of cycles IEW is idle
system.cpu0.iew.iewSquashCycles                109295                       # Number of cycles IEW is squashing
system.cpu0.iew.iewBlockCycles                3285016                       # Number of cycles IEW is blocking
system.cpu0.iew.iewUnblockCycles               108898                       # Number of cycles IEW is unblocking
system.cpu0.iew.iewDispatchedInsts           76513459                       # Number of instructions dispatched to IQ
system.cpu0.iew.iewDispSquashedInsts                0                       # Number of squashed instructions skipped by dispatch
system.cpu0.iew.iewDispLoadInsts              9526576                       # Number of dispatched load instructions
system.cpu0.iew.iewDispStoreInsts             2100084                       # Number of dispatched store instructions
system.cpu0.iew.iewDispNonSpecInsts                 0                       # Number of dispatched non-speculative instructions
system.cpu0.iew.iewIQFullEvents                 95647                       # Number of times the IQ has become full, causing a stall
system.cpu0.iew.iewLSQFullEvents                    0                       # Number of times the LSQ has become full, causing a stall
system.cpu0.iew.memOrderViolationEvents           103                       # Number of memory order violations
system.cpu0.iew.predictedTakenIncorrect         57178                       # Number of branches that were predicted taken incorrectly
system.cpu0.iew.predictedNotTakenIncorrect        52032                       # Number of branches that were predicted not taken incorrectly
system.cpu0.iew.branchMispredicts              109210                       # Number of branch mispredicts detected at execute
system.cpu0.iew.iewExecutedInsts             70624618                       # Number of executed instructions
system.cpu0.iew.iewExecLoadInsts              8904072                       # Number of load instructions executed
system.cpu0.iew.iewExecSquashedInsts           198231                       # Number of squashed instructions skipped in execute
system.cpu0.iew.exec_swp                            0                       # number of swp insts executed
system.cpu0.iew.exec_nop                            0                       # number of nop insts executed
system.cpu0.iew.exec_refs                    11001786                       # number of memory reference insts executed
system.cpu0.iew.exec_branches                 4714636                       # Number of branches executed
system.cpu0.iew.exec_stores                   2097714                       # Number of stores executed
system.cpu0.iew.exec_rate                    2.312931                       # Inst execution rate
system.cpu0.iew.wb_sent                      70620008                       # cumulative count of insts sent to commit
system.cpu0.iew.wb_count                     70615874                       # cumulative count of insts written-back
system.cpu0.iew.wb_producers                 52561512                       # num instructions producing a value
system.cpu0.iew.wb_consumers                 92503008                       # num instructions consuming a value
system.cpu0.iew.wb_rate                      2.312644                       # insts written-back per cycle
system.cpu0.iew.wb_fanout                    0.568214                       # average fanout of values written-back
system.cpu0.commit.commitSquashedInsts       10631747                       # The number of squashed insts skipped by commit
system.cpu0.commit.branchMispredicts           109192                       # The number of times a branch was mispredicted
system.cpu0.commit.committed_per_cycle::samples     29174869                       # Number of insts commited each cycle
system.cpu0.commit.committed_per_cycle::mean     2.258168                       # Number of insts commited each cycle
system.cpu0.commit.committed_per_cycle::stdev     2.862189                       # Number of insts commited each cycle
system.cpu0.commit.committed_per_cycle::underflows            0      0.00%      0.00% # Number of insts commited each cycle
system.cpu0.commit.committed_per_cycle::0     10916152     37.42%     37.42% # Number of insts commited each cycle
system.cpu0.commit.committed_per_cycle::1      7528484     25.80%     63.22% # Number of insts commited each cycle
system.cpu0.commit.committed_per_cycle::2      1055983      3.62%     66.84% # Number of insts commited each cycle
system.cpu0.commit.committed_per_cycle::3      2915251      9.99%     76.83% # Number of insts commited each cycle
system.cpu0.commit.committed_per_cycle::4      1142756      3.92%     80.75% # Number of insts commited each cycle
system.cpu0.commit.committed_per_cycle::5       217025      0.74%     81.49% # Number of insts commited each cycle
system.cpu0.commit.committed_per_cycle::6       421024      1.44%     82.94% # Number of insts commited each cycle
system.cpu0.commit.committed_per_cycle::7       512294      1.76%     84.69% # Number of insts commited each cycle
system.cpu0.commit.committed_per_cycle::8      4465900     15.31%    100.00% # Number of insts commited each cycle
system.cpu0.commit.committed_per_cycle::overflows            0      0.00%    100.00% # Number of insts commited each cycle
system.cpu0.commit.committed_per_cycle::min_value            0                       # Number of insts commited each cycle
system.cpu0.commit.committed_per_cycle::max_value            8                       # Number of insts commited each cycle
system.cpu0.commit.committed_per_cycle::total     29174869                       # Number of insts commited each cycle
system.cpu0.commit.committedInsts            37103703                       # Number of instructions committed
system.cpu0.commit.committedOps              65881754                       # Number of ops (including micro ops) committed
system.cpu0.commit.swp_count                        0                       # Number of s/w prefetches committed
system.cpu0.commit.refs                      10210216                       # Number of memory references committed
system.cpu0.commit.loads                      8113733                       # Number of loads committed
system.cpu0.commit.membars                          0                       # Number of memory barriers committed
system.cpu0.commit.branches                   4607848                       # Number of branches committed
system.cpu0.commit.vec_insts                        0                       # Number of committed Vector instructions.
system.cpu0.commit.fp_insts                  34062343                       # Number of committed floating point instructions.
system.cpu0.commit.int_insts                 40904582                       # Number of committed integer instructions.
system.cpu0.commit.function_calls              626823                       # Number of function calls committed.
system.cpu0.commit.op_class_0::No_OpClass         5985      0.01%      0.01% # Class of committed instruction
system.cpu0.commit.op_class_0::IntAlu        34246604     51.98%     51.99% # Class of committed instruction
system.cpu0.commit.op_class_0::IntMult              0      0.00%     51.99% # Class of committed instruction
system.cpu0.commit.op_class_0::IntDiv               0      0.00%     51.99% # Class of committed instruction
system.cpu0.commit.op_class_0::FloatAdd      21418949     32.51%     84.50% # Class of committed instruction
system.cpu0.commit.op_class_0::FloatCmp             0      0.00%     84.50% # Class of committed instruction
system.cpu0.commit.op_class_0::FloatCvt             0      0.00%     84.50% # Class of committed instruction
system.cpu0.commit.op_class_0::FloatMult            0      0.00%     84.50% # Class of committed instruction
system.cpu0.commit.op_class_0::FloatMultAcc            0      0.00%     84.50% # Class of committed instruction
system.cpu0.commit.op_class_0::FloatDiv             0      0.00%     84.50% # Class of committed instruction
system.cpu0.commit.op_class_0::FloatMisc            0      0.00%     84.50% # Class of committed instruction
system.cpu0.commit.op_class_0::FloatSqrt            0      0.00%     84.50% # Class of committed instruction
system.cpu0.commit.op_class_0::SimdAdd              0      0.00%     84.50% # Class of committed instruction
system.cpu0.commit.op_class_0::SimdAddAcc            0      0.00%     84.50% # Class of committed instruction
system.cpu0.commit.op_class_0::SimdAlu              0      0.00%     84.50% # Class of committed instruction
system.cpu0.commit.op_class_0::SimdCmp              0      0.00%     84.50% # Class of committed instruction
system.cpu0.commit.op_class_0::SimdCvt              0      0.00%     84.50% # Class of committed instruction
system.cpu0.commit.op_class_0::SimdMisc             0      0.00%     84.50% # Class of committed instruction
system.cpu0.commit.op_class_0::SimdMult             0      0.00%     84.50% # Class of committed instruction
system.cpu0.commit.op_class_0::SimdMultAcc            0      0.00%     84.50% # Class of committed instruction
system.cpu0.commit.op_class_0::SimdShift            0      0.00%     84.50% # Class of committed instruction
system.cpu0.commit.op_class_0::SimdShiftAcc            0      0.00%     84.50% # Class of committed instruction
system.cpu0.commit.op_class_0::SimdSqrt             0      0.00%     84.50% # Class of committed instruction
system.cpu0.commit.op_class_0::SimdFloatAdd            0      0.00%     84.50% # Class of committed instruction
system.cpu0.commit.op_class_0::SimdFloatAlu            0      0.00%     84.50% # Class of committed instruction
system.cpu0.commit.op_class_0::SimdFloatCmp            0      0.00%     84.50% # Class of committed instruction
system.cpu0.commit.op_class_0::SimdFloatCvt            0      0.00%     84.50% # Class of committed instruction
system.cpu0.commit.op_class_0::SimdFloatDiv            0      0.00%     84.50% # Class of committed instruction
system.cpu0.commit.op_class_0::SimdFloatMisc            0      0.00%     84.50% # Class of committed instruction
system.cpu0.commit.op_class_0::SimdFloatMult            0      0.00%     84.50% # Class of committed instruction
system.cpu0.commit.op_class_0::SimdFloatMultAcc            0      0.00%     84.50% # Class of committed instruction
system.cpu0.commit.op_class_0::SimdFloatSqrt            0      0.00%     84.50% # Class of committed instruction
system.cpu0.commit.op_class_0::MemRead        1947752      2.96%     87.46% # Class of committed instruction
system.cpu0.commit.op_class_0::MemWrite       1469658      2.23%     89.69% # Class of committed instruction
system.cpu0.commit.op_class_0::FloatMemRead      6165981      9.36%     99.05% # Class of committed instruction
system.cpu0.commit.op_class_0::FloatMemWrite       626825      0.95%    100.00% # Class of committed instruction
system.cpu0.commit.op_class_0::IprAccess            0      0.00%    100.00% # Class of committed instruction
system.cpu0.commit.op_class_0::InstPrefetch            0      0.00%    100.00% # Class of committed instruction
system.cpu0.commit.op_class_0::total         65881754                       # Class of committed instruction
system.cpu0.commit.bw_lim_events              4465900                       # number cycles where commit BW limit reached
system.cpu0.rob.rob_reads                   101222470                       # The number of ROB reads
system.cpu0.rob.rob_writes                  154386805                       # The number of ROB writes
system.cpu0.committedInsts                   37103703                       # Number of Instructions Simulated
system.cpu0.committedOps                     65881754                       # Number of Ops (including micro ops) Simulated
system.cpu0.cpi                              0.822955                       # CPI: Cycles Per Instruction
system.cpu0.cpi_total                        0.822955                       # CPI: Total CPI of All Threads
system.cpu0.ipc                              1.215133                       # IPC: Instructions Per Cycle
system.cpu0.ipc_total                        1.215133                       # IPC: Total IPC of All Threads
system.cpu0.int_regfile_reads                56193908                       # number of integer regfile reads
system.cpu0.int_regfile_writes               28603222                       # number of integer regfile writes
system.cpu0.fp_regfile_reads                 64787711                       # number of floating regfile reads
system.cpu0.fp_regfile_writes                33316456                       # number of floating regfile writes
system.cpu0.cc_regfile_reads                 20598490                       # number of cc regfile reads
system.cpu0.cc_regfile_writes                13416476                       # number of cc regfile writes
system.cpu0.misc_regfile_reads               24160266                       # number of misc regfile reads
system.cpu0.dcache.tags.pwrStateResidencyTicks::UNDEFINED  15267344125                       # Cumulative time (in ticks) in various power states
system.cpu0.dcache.tags.replacements            14375                       # number of replacements
system.cpu0.dcache.tags.tagsinuse                 512                       # Cycle average of tags in use
system.cpu0.dcache.tags.total_refs            1383437                       # Total number of references to valid blocks.
system.cpu0.dcache.tags.sampled_refs            14375                       # Sample count of references to valid blocks.
system.cpu0.dcache.tags.avg_refs            96.239096                       # Average number of references to valid blocks.
system.cpu0.dcache.tags.warmup_cycle                0                       # Cycle when the warmup percentage was hit.
system.cpu0.dcache.tags.occ_blocks::cpu0.data          512                       # Average occupied blocks per requestor
system.cpu0.dcache.tags.occ_percent::cpu0.data            1                       # Average percentage of cache occupancy
system.cpu0.dcache.tags.occ_percent::total            1                       # Average percentage of cache occupancy
system.cpu0.dcache.tags.occ_task_id_blocks::1024          512                       # Occupied blocks per task id
system.cpu0.dcache.tags.age_task_id_blocks_1024::0            9                       # Occupied blocks per task id
system.cpu0.dcache.tags.age_task_id_blocks_1024::1           83                       # Occupied blocks per task id
system.cpu0.dcache.tags.age_task_id_blocks_1024::2          204                       # Occupied blocks per task id
system.cpu0.dcache.tags.age_task_id_blocks_1024::3           10                       # Occupied blocks per task id
system.cpu0.dcache.tags.age_task_id_blocks_1024::4          206                       # Occupied blocks per task id
system.cpu0.dcache.tags.occ_task_id_percent::1024            1                       # Percentage of cache occupancy per task id
system.cpu0.dcache.tags.tag_accesses         42445287                       # Number of tag accesses
system.cpu0.dcache.tags.data_accesses        42445287                       # Number of data accesses
system.cpu0.dcache.pwrStateResidencyTicks::UNDEFINED  15267344125                       # Cumulative time (in ticks) in various power states
system.cpu0.dcache.ReadReq_hits::cpu0.data      8496743                       # number of ReadReq hits
system.cpu0.dcache.ReadReq_hits::total        8496743                       # number of ReadReq hits
system.cpu0.dcache.WriteReq_hits::cpu0.data      2096483                       # number of WriteReq hits
system.cpu0.dcache.WriteReq_hits::total       2096483                       # number of WriteReq hits
system.cpu0.dcache.demand_hits::cpu0.data     10593226                       # number of demand (read+write) hits
system.cpu0.dcache.demand_hits::total        10593226                       # number of demand (read+write) hits
system.cpu0.dcache.overall_hits::cpu0.data     10593226                       # number of overall hits
system.cpu0.dcache.overall_hits::total       10593226                       # number of overall hits
system.cpu0.dcache.ReadReq_misses::cpu0.data        14502                       # number of ReadReq misses
system.cpu0.dcache.ReadReq_misses::total        14502                       # number of ReadReq misses
system.cpu0.dcache.demand_misses::cpu0.data        14502                       # number of demand (read+write) misses
system.cpu0.dcache.demand_misses::total         14502                       # number of demand (read+write) misses
system.cpu0.dcache.overall_misses::cpu0.data        14502                       # number of overall misses
system.cpu0.dcache.overall_misses::total        14502                       # number of overall misses
system.cpu0.dcache.ReadReq_miss_latency::cpu0.data   1366871500                       # number of ReadReq miss cycles
system.cpu0.dcache.ReadReq_miss_latency::total   1366871500                       # number of ReadReq miss cycles
system.cpu0.dcache.demand_miss_latency::cpu0.data   1366871500                       # number of demand (read+write) miss cycles
system.cpu0.dcache.demand_miss_latency::total   1366871500                       # number of demand (read+write) miss cycles
system.cpu0.dcache.overall_miss_latency::cpu0.data   1366871500                       # number of overall miss cycles
system.cpu0.dcache.overall_miss_latency::total   1366871500                       # number of overall miss cycles
system.cpu0.dcache.ReadReq_accesses::cpu0.data      8511245                       # number of ReadReq accesses(hits+misses)
system.cpu0.dcache.ReadReq_accesses::total      8511245                       # number of ReadReq accesses(hits+misses)
system.cpu0.dcache.WriteReq_accesses::cpu0.data      2096483                       # number of WriteReq accesses(hits+misses)
system.cpu0.dcache.WriteReq_accesses::total      2096483                       # number of WriteReq accesses(hits+misses)
system.cpu0.dcache.demand_accesses::cpu0.data     10607728                       # number of demand (read+write) accesses
system.cpu0.dcache.demand_accesses::total     10607728                       # number of demand (read+write) accesses
system.cpu0.dcache.overall_accesses::cpu0.data     10607728                       # number of overall (read+write) accesses
system.cpu0.dcache.overall_accesses::total     10607728                       # number of overall (read+write) accesses
system.cpu0.dcache.ReadReq_miss_rate::cpu0.data     0.001704                       # miss rate for ReadReq accesses
system.cpu0.dcache.ReadReq_miss_rate::total     0.001704                       # miss rate for ReadReq accesses
system.cpu0.dcache.demand_miss_rate::cpu0.data     0.001367                       # miss rate for demand accesses
system.cpu0.dcache.demand_miss_rate::total     0.001367                       # miss rate for demand accesses
system.cpu0.dcache.overall_miss_rate::cpu0.data     0.001367                       # miss rate for overall accesses
system.cpu0.dcache.overall_miss_rate::total     0.001367                       # miss rate for overall accesses
system.cpu0.dcache.ReadReq_avg_miss_latency::cpu0.data 94253.999448                       # average ReadReq miss latency
system.cpu0.dcache.ReadReq_avg_miss_latency::total 94253.999448                       # average ReadReq miss latency
system.cpu0.dcache.demand_avg_miss_latency::cpu0.data 94253.999448                       # average overall miss latency
system.cpu0.dcache.demand_avg_miss_latency::total 94253.999448                       # average overall miss latency
system.cpu0.dcache.overall_avg_miss_latency::cpu0.data 94253.999448                       # average overall miss latency
system.cpu0.dcache.overall_avg_miss_latency::total 94253.999448                       # average overall miss latency
system.cpu0.dcache.blocked_cycles::no_mshrs            0                       # number of cycles access was blocked
system.cpu0.dcache.blocked_cycles::no_targets            0                       # number of cycles access was blocked
system.cpu0.dcache.blocked::no_mshrs                0                       # number of cycles access was blocked
system.cpu0.dcache.blocked::no_targets              0                       # number of cycles access was blocked
system.cpu0.dcache.avg_blocked_cycles::no_mshrs          nan                       # average number of cycles each access was blocked
system.cpu0.dcache.avg_blocked_cycles::no_targets          nan                       # average number of cycles each access was blocked
system.cpu0.dcache.writebacks::writebacks        13419                       # number of writebacks
system.cpu0.dcache.writebacks::total            13419                       # number of writebacks
system.cpu0.dcache.ReadReq_mshr_hits::cpu0.data          127                       # number of ReadReq MSHR hits
system.cpu0.dcache.ReadReq_mshr_hits::total          127                       # number of ReadReq MSHR hits
system.cpu0.dcache.demand_mshr_hits::cpu0.data          127                       # number of demand (read+write) MSHR hits
[...]
system.l2.ReadSharedReq_accesses::cpu0.data        14375                       # number of ReadSharedReq accesses(hits+misses)
system.l2.ReadSharedReq_accesses::total         14375                       # number of ReadSharedReq accesses(hits+misses)
system.l2.demand_accesses::cpu0.inst                2                       # number of demand (read+write) accesses
system.l2.demand_accesses::cpu0.data            14375                       # number of demand (read+write) accesses
system.l2.demand_accesses::total                14377                       # number of demand (read+write) accesses
system.l2.overall_accesses::cpu0.inst               2                       # number of overall (read+write) accesses
system.l2.overall_accesses::cpu0.data           14375                       # number of overall (read+write) accesses
system.l2.overall_accesses::total               14377                       # number of overall (read+write) accesses
system.l2.ReadCleanReq_miss_rate::cpu0.inst            1                       # miss rate for ReadCleanReq accesses
system.l2.ReadCleanReq_miss_rate::total             1                       # miss rate for ReadCleanReq accesses
system.l2.ReadSharedReq_miss_rate::cpu0.data     0.974330                       # miss rate for ReadSharedReq accesses
system.l2.ReadSharedReq_miss_rate::total     0.974330                       # miss rate for ReadSharedReq accesses
system.l2.demand_miss_rate::cpu0.inst               1                       # miss rate for demand accesses
system.l2.demand_miss_rate::cpu0.data        0.974330                       # miss rate for demand accesses
system.l2.demand_miss_rate::total            0.974334                       # miss rate for demand accesses
system.l2.overall_miss_rate::cpu0.inst              1                       # miss rate for overall accesses
system.l2.overall_miss_rate::cpu0.data       0.974330                       # miss rate for overall accesses
system.l2.overall_miss_rate::total           0.974334                       # miss rate for overall accesses
system.l2.ReadCleanReq_avg_miss_latency::cpu0.inst       100750                       # average ReadCleanReq miss latency
system.l2.ReadCleanReq_avg_miss_latency::total       100750                       # average ReadCleanReq miss latency
system.l2.ReadSharedReq_avg_miss_latency::cpu0.data 94319.077538                       # average ReadSharedReq miss latency
system.l2.ReadSharedReq_avg_miss_latency::total 94319.077538                       # average ReadSharedReq miss latency
system.l2.demand_avg_miss_latency::cpu0.inst       100750                       # average overall miss latency
system.l2.demand_avg_miss_latency::cpu0.data 94319.077538                       # average overall miss latency
system.l2.demand_avg_miss_latency::total 94319.995717                       # average overall miss latency
system.l2.overall_avg_miss_latency::cpu0.inst       100750                       # average overall miss latency
system.l2.overall_avg_miss_latency::cpu0.data 94319.077538                       # average overall miss latency
system.l2.overall_avg_miss_latency::total 94319.995717                       # average overall miss latency
system.l2.blocked_cycles::no_mshrs                  0                       # number of cycles access was blocked
system.l2.blocked_cycles::no_targets                0                       # number of cycles access was blocked
system.l2.blocked::no_mshrs                         0                       # number of cycles access was blocked
system.l2.blocked::no_targets                       0                       # number of cycles access was blocked
system.l2.avg_blocked_cycles::no_mshrs            nan                       # average number of cycles each access was blocked
system.l2.avg_blocked_cycles::no_targets          nan                       # average number of cycles each access was blocked
system.l2.writebacks::writebacks                13879                       # number of writebacks
system.l2.writebacks::total                     13879                       # number of writebacks
system.l2.ReadCleanReq_mshr_misses::cpu0.inst            2                       # number of ReadCleanReq MSHR misses
system.l2.ReadCleanReq_mshr_misses::total            2                       # number of ReadCleanReq MSHR misses
system.l2.ReadSharedReq_mshr_misses::cpu0.data        14006                       # number of ReadSharedReq MSHR misses
system.l2.ReadSharedReq_mshr_misses::total        14006                       # number of ReadSharedReq MSHR misses
system.l2.demand_mshr_misses::cpu0.inst             2                       # number of demand (read+write) MSHR misses
system.l2.demand_mshr_misses::cpu0.data         14006                       # number of demand (read+write) MSHR misses
system.l2.demand_mshr_misses::total             14008                       # number of demand (read+write) MSHR misses
system.l2.overall_mshr_misses::cpu0.inst            2                       # number of overall MSHR misses
system.l2.overall_mshr_misses::cpu0.data        14006                       # number of overall MSHR misses
system.l2.overall_mshr_misses::total            14008                       # number of overall MSHR misses
system.l2.ReadCleanReq_mshr_miss_latency::cpu0.inst       181500                       # number of ReadCleanReq MSHR miss cycles
system.l2.ReadCleanReq_mshr_miss_latency::total       181500                       # number of ReadCleanReq MSHR miss cycles
system.l2.ReadSharedReq_mshr_miss_latency::cpu0.data   1180973000                       # number of ReadSharedReq MSHR miss cycles
system.l2.ReadSharedReq_mshr_miss_latency::total   1180973000                       # number of ReadSharedReq MSHR miss cycles
system.l2.demand_mshr_miss_latency::cpu0.inst       181500                       # number of demand (read+write) MSHR miss cycles
system.l2.demand_mshr_miss_latency::cpu0.data   1180973000                       # number of demand (read+write) MSHR miss cycles
system.l2.demand_mshr_miss_latency::total   1181154500                       # number of demand (read+write) MSHR miss cycles
system.l2.overall_mshr_miss_latency::cpu0.inst       181500                       # number of overall MSHR miss cycles
system.l2.overall_mshr_miss_latency::cpu0.data   1180973000                       # number of overall MSHR miss cycles
system.l2.overall_mshr_miss_latency::total   1181154500                       # number of overall MSHR miss cycles
system.l2.ReadCleanReq_mshr_miss_rate::cpu0.inst            1                       # mshr miss rate for ReadCleanReq accesses
system.l2.ReadCleanReq_mshr_miss_rate::total            1                       # mshr miss rate for ReadCleanReq accesses
system.l2.ReadSharedReq_mshr_miss_rate::cpu0.data     0.974330                       # mshr miss rate for ReadSharedReq accesses
system.l2.ReadSharedReq_mshr_miss_rate::total     0.974330                       # mshr miss rate for ReadSharedReq accesses
system.l2.demand_mshr_miss_rate::cpu0.inst            1                       # mshr miss rate for demand accesses
system.l2.demand_mshr_miss_rate::cpu0.data     0.974330                       # mshr miss rate for demand accesses
system.l2.demand_mshr_miss_rate::total       0.974334                       # mshr miss rate for demand accesses
system.l2.overall_mshr_miss_rate::cpu0.inst            1                       # mshr miss rate for overall accesses
system.l2.overall_mshr_miss_rate::cpu0.data     0.974330                       # mshr miss rate for overall accesses
system.l2.overall_mshr_miss_rate::total      0.974334                       # mshr miss rate for overall accesses
system.l2.ReadCleanReq_avg_mshr_miss_latency::cpu0.inst        90750                       # average ReadCleanReq mshr miss latency
system.l2.ReadCleanReq_avg_mshr_miss_latency::total        90750                       # average ReadCleanReq mshr miss latency
system.l2.ReadSharedReq_avg_mshr_miss_latency::cpu0.data 84319.077538                       # average ReadSharedReq mshr miss latency
system.l2.ReadSharedReq_avg_mshr_miss_latency::total 84319.077538                       # average ReadSharedReq mshr miss latency
system.l2.demand_avg_mshr_miss_latency::cpu0.inst        90750                       # average overall mshr miss latency
system.l2.demand_avg_mshr_miss_latency::cpu0.data 84319.077538                       # average overall mshr miss latency
system.l2.demand_avg_mshr_miss_latency::total 84319.995717                       # average overall mshr miss latency
system.l2.overall_avg_mshr_miss_latency::cpu0.inst        90750                       # average overall mshr miss latency
system.l2.overall_avg_mshr_miss_latency::cpu0.data 84319.077538                       # average overall mshr miss latency
system.l2.overall_avg_mshr_miss_latency::total 84319.995717                       # average overall mshr miss latency
system.membus.snoop_filter.tot_requests         27998                       # Total number of requests made to the snoop filter.
system.membus.snoop_filter.hit_single_requests        13990                       # Number of requests hitting in the snoop filter with a single holder of the requested data.
system.membus.snoop_filter.hit_multi_requests            0                       # Number of requests hitting in the snoop filter with multiple (>1) holders of the requested data.
system.membus.snoop_filter.tot_snoops               0                       # Total number of snoops made to the snoop filter.
system.membus.snoop_filter.hit_single_snoops            0                       # Number of snoops hitting in the snoop filter with a single holder of the requested data.
system.membus.snoop_filter.hit_multi_snoops            0                       # Number of snoops hitting in the snoop filter with multiple (>1) holders of the requested data.
system.membus.pwrStateResidencyTicks::UNDEFINED  15267344125                       # Cumulative time (in ticks) in various power states
system.membus.trans_dist::ReadResp              14008                       # Transaction distribution
system.membus.trans_dist::WritebackDirty        13879                       # Transaction distribution
system.membus.trans_dist::CleanEvict              111                       # Transaction distribution
system.membus.trans_dist::ReadSharedReq         14008                       # Transaction distribution
system.membus.pkt_count_system.l2.mem_side::system.mem_ctrls.port        42006                       # Packet count per connected master and slave (bytes)
system.membus.pkt_count_system.l2.mem_side::total        42006                       # Packet count per connected master and slave (bytes)
system.membus.pkt_count::total                  42006                       # Packet count per connected master and slave (bytes)
system.membus.pkt_size_system.l2.mem_side::system.mem_ctrls.port      1784768                       # Cumulative packet size per connected master and slave (bytes)
system.membus.pkt_size_system.l2.mem_side::total      1784768                       # Cumulative packet size per connected master and slave (bytes)
system.membus.pkt_size::total                 1784768                       # Cumulative packet size per connected master and slave (bytes)
system.membus.snoops                                0                       # Total snoops (count)
system.membus.snoopTraffic                          0                       # Total snoop traffic (bytes)
system.membus.snoop_fanout::samples             14008                       # Request fanout histogram
system.membus.snoop_fanout::mean                    0                       # Request fanout histogram
system.membus.snoop_fanout::stdev                   0                       # Request fanout histogram
system.membus.snoop_fanout::underflows              0      0.00%      0.00% # Request fanout histogram
system.membus.snoop_fanout::0                   14008    100.00%    100.00% # Request fanout histogram
system.membus.snoop_fanout::1                       0      0.00%    100.00% # Request fanout histogram
system.membus.snoop_fanout::overflows               0      0.00%    100.00% # Request fanout histogram
system.membus.snoop_fanout::min_value               0                       # Request fanout histogram
system.membus.snoop_fanout::max_value               0                       # Request fanout histogram
system.membus.snoop_fanout::total               14008                       # Request fanout histogram
system.membus.reqLayer12.occupancy           87029500                       # Layer occupancy (ticks)
system.membus.reqLayer12.utilization              0.6                       # Layer utilization (%)
system.membus.respLayer1.occupancy           74575500                       # Layer occupancy (ticks)
system.membus.respLayer1.utilization              0.5                       # Layer utilization (%)
system.tol2bus.snoop_filter.tot_requests        28754                       # Total number of requests made to the snoop filter.
system.tol2bus.snoop_filter.hit_single_requests        14377                       # Number of requests hitting in the snoop filter with a single holder of the requested data.
system.tol2bus.snoop_filter.hit_multi_requests            0                       # Number of requests hitting in the snoop filter with multiple (>1) holders of the requested data.
system.tol2bus.snoop_filter.tot_snoops             20                       # Total number of snoops made to the snoop filter.
system.tol2bus.snoop_filter.hit_single_snoops           20                       # Number of snoops hitting in the snoop filter with a single holder of the requested data.
system.tol2bus.snoop_filter.hit_multi_snoops            0                       # Number of snoops hitting in the snoop filter with multiple (>1) holders of the requested data.
system.tol2bus.pwrStateResidencyTicks::UNDEFINED  15267344125                       # Cumulative time (in ticks) in various power states
system.tol2bus.trans_dist::ReadResp             14377                       # Transaction distribution
system.tol2bus.trans_dist::WritebackDirty        27298                       # Transaction distribution
system.tol2bus.trans_dist::WritebackClean            2                       # Transaction distribution
system.tol2bus.trans_dist::CleanEvict            1087                       # Transaction distribution
system.tol2bus.trans_dist::ReadCleanReq             2                       # Transaction distribution
system.tol2bus.trans_dist::ReadSharedReq        14375                       # Transaction distribution
system.tol2bus.pkt_count_system.cpu0.icache.mem_side::system.l2.cpu_side            6                       # Packet count per connected master and slave (bytes)
system.tol2bus.pkt_count_system.cpu0.dcache.mem_side::system.l2.cpu_side        43125                       # Packet count per connected master and slave (bytes)
system.tol2bus.pkt_count::total                 43131                       # Packet count per connected master and slave (bytes)
system.tol2bus.pkt_size_system.cpu0.icache.mem_side::system.l2.cpu_side          256                       # Cumulative packet size per connected master and slave (bytes)
system.tol2bus.pkt_size_system.cpu0.dcache.mem_side::system.l2.cpu_side      1778816                       # Cumulative packet size per connected master and slave (bytes)
system.tol2bus.pkt_size::total                1779072                       # Cumulative packet size per connected master and slave (bytes)
system.tol2bus.snoops                           14010                       # Total snoops (count)
system.tol2bus.snoopTraffic                    888256                       # Total snoop traffic (bytes)
system.tol2bus.snoop_fanout::samples            28387                       # Request fanout histogram
system.tol2bus.snoop_fanout::mean            0.000705                       # Request fanout histogram
system.tol2bus.snoop_fanout::stdev           0.026534                       # Request fanout histogram
system.tol2bus.snoop_fanout::underflows             0      0.00%      0.00% # Request fanout histogram
system.tol2bus.snoop_fanout::0                  28367     99.93%     99.93% # Request fanout histogram
system.tol2bus.snoop_fanout::1                     20      0.07%    100.00% # Request fanout histogram
system.tol2bus.snoop_fanout::2                      0      0.00%    100.00% # Request fanout histogram
system.tol2bus.snoop_fanout::3                      0      0.00%    100.00% # Request fanout histogram
system.tol2bus.snoop_fanout::4                      0      0.00%    100.00% # Request fanout histogram
system.tol2bus.snoop_fanout::5                      0      0.00%    100.00% # Request fanout histogram
system.tol2bus.snoop_fanout::6                      0      0.00%    100.00% # Request fanout histogram
system.tol2bus.snoop_fanout::7                      0      0.00%    100.00% # Request fanout histogram
system.tol2bus.snoop_fanout::8                      0      0.00%    100.00% # Request fanout histogram
system.tol2bus.snoop_fanout::9                      0      0.00%    100.00% # Request fanout histogram
system.tol2bus.snoop_fanout::10                     0      0.00%    100.00% # Request fanout histogram
system.tol2bus.snoop_fanout::11                     0      0.00%    100.00% # Request fanout histogram
system.tol2bus.snoop_fanout::12                     0      0.00%    100.00% # Request fanout histogram
system.tol2bus.snoop_fanout::13                     0      0.00%    100.00% # Request fanout histogram
system.tol2bus.snoop_fanout::14                     0      0.00%    100.00% # Request fanout histogram
system.tol2bus.snoop_fanout::15                     0      0.00%    100.00% # Request fanout histogram
system.tol2bus.snoop_fanout::16                     0      0.00%    100.00% # Request fanout histogram
system.tol2bus.snoop_fanout::17                     0      0.00%    100.00% # Request fanout histogram
system.tol2bus.snoop_fanout::18                     0      0.00%    100.00% # Request fanout histogram
system.tol2bus.snoop_fanout::19                     0      0.00%    100.00% # Request fanout histogram
system.tol2bus.snoop_fanout::20                     0      0.00%    100.00% # Request fanout histogram
system.tol2bus.snoop_fanout::21                     0      0.00%    100.00% # Request fanout histogram
system.tol2bus.snoop_fanout::22                     0      0.00%    100.00% # Request fanout histogram
system.tol2bus.snoop_fanout::23                     0      0.00%    100.00% # Request fanout histogram
system.tol2bus.snoop_fanout::24                     0      0.00%    100.00% # Request fanout histogram
system.tol2bus.snoop_fanout::overflows              0      0.00%    100.00% # Request fanout histogram
system.tol2bus.snoop_fanout::min_value              0                       # Request fanout histogram
system.tol2bus.snoop_fanout::max_value              1                       # Request fanout histogram
system.tol2bus.snoop_fanout::total              28387                       # Request fanout histogram
system.tol2bus.reqLayer0.occupancy           27798000                       # Layer occupancy (ticks)
system.tol2bus.reqLayer0.utilization              0.2                       # Layer utilization (%)
system.tol2bus.respLayer0.occupancy              3000                       # Layer occupancy (ticks)
system.tol2bus.respLayer0.utilization             0.0                       # Layer utilization (%)
system.tol2bus.respLayer1.occupancy          21562500                       # Layer occupancy (ticks)
system.tol2bus.respLayer1.utilization             0.1                       # Layer utilization (%)

---------- End Simulation Statistics   ----------
