
---------- Begin Simulation Statistics ----------
sim_seconds                                  0.015267                       # Number of seconds simulated
sim_ticks                                 15267344125                       # Number of ticks simulated
final_tick                               3480954460500                       # Number of ticks from beginning of simulation (restored from checkpoints and never reset)
sim_freq                                 1000000000000                       # Frequency of simulated ticks
host_inst_rate                               53529556                       # Simulator instruction rate (inst/s)
host_op_rate                                 99533559                       # Simulator op (including micro ops) rate (op/s)
host_tick_rate                              139963172                       # Simulator tick rate (ticks/s)
host_mem_usage                                3428952                       # Number of bytes of host memory used
host_seconds                                   109.08                       # Real time elapsed on the host
sim_insts                                  5839063737                       # Number of instructions simulated
sim_ops                                   10857233664                       # Number of ops (including micro ops) simulated
system.voltage_domain.voltage                       1                       # Voltage in Volts
system.clk_domain.clock                          1000                       # Clock period in ticks
system.mem_ctrls.pwrStateResidencyTicks::UNDEFINED  15267344125                       # Cumulative time (in ticks) in various power states
system.mem_ctrls.bytes_read::cpu0.inst            128                       # Number of bytes read from this memory
system.mem_ctrls.bytes_read::cpu0.data         755648                       # Number of bytes read from this memory
system.mem_ctrls.bytes_read::total             755776                       # Number of bytes read from this memory
system.mem_ctrls.bytes_inst_read::cpu0.inst          128                       # Number of instructions bytes read from this memory
system.mem_ctrls.bytes_inst_read::total           128                       # Number of instructions bytes read from this memory
system.mem_ctrls.bytes_written::writebacks       216000                       # Number of bytes written to this memory
system.mem_ctrls.bytes_written::total          216000                       # Number of bytes written to this memory
system.mem_ctrls.num_reads::cpu0.inst               2                       # Number of read requests responded to by this memory
system.mem_ctrls.num_reads::cpu0.data           11807                       # Number of read requests responded to by this memory
system.mem_ctrls.num_reads::total               11809                       # Number of read requests responded to by this memory
system.mem_ctrls.num_writes::writebacks          3375                       # Number of write requests responded to by this memory
system.mem_ctrls.num_writes::total               3375                       # Number of write requests responded to by this memory
system.mem_ctrls.bw_read::cpu0.inst              8384                       # Total read bandwidth from this memory (bytes/s)
system.mem_ctrls.bw_read::cpu0.data          49494398                       # Total read bandwidth from this memory (bytes/s)
system.mem_ctrls.bw_read::total              49502781                       # Total read bandwidth from this memory (bytes/s)
system.mem_ctrls.bw_inst_read::cpu0.inst         8384                       # Instruction read bandwidth from this memory (bytes/s)
system.mem_ctrls.bw_inst_read::total             8384                       # Instruction read bandwidth from this memory (bytes/s)
system.mem_ctrls.bw_write::writebacks        14147844                       # Write bandwidth from this memory (bytes/s)
system.mem_ctrls.bw_write::total             14147844                       # Write bandwidth from this memory (bytes/s)
system.mem_ctrls.bw_total::writebacks        14147844                       # Total bandwidth to/from this memory (bytes/s)
system.mem_ctrls.bw_total::cpu0.inst             8384                       # Total bandwidth to/from this memory (bytes/s)
system.mem_ctrls.bw_total::cpu0.data         49494398                       # Total bandwidth to/from this memory (bytes/s)
system.mem_ctrls.bw_total::total             63650625                       # Total bandwidth to/from this memory (bytes/s)
system.mem_ctrls.readReqs                       11809                       # Number of read requests accepted
system.mem_ctrls.writeReqs                       3375                       # Number of write requests accepted
system.mem_ctrls.readBursts                     11809                       # Number of DRAM read bursts, including those serviced by the write queue
system.mem_ctrls.writeBursts                     3375                       # Number of DRAM write bursts, including those merged in the write queue
system.mem_ctrls.bytesReadDRAM                 740608                       # Total number of bytes read from DRAM
system.mem_ctrls.bytesReadWrQ                   15168                       # Total number of bytes read from write queue
system.mem_ctrls.bytesWritten                  215872                       # Total number of bytes written to DRAM
system.mem_ctrls.bytesReadSys                  755776                       # Total read bytes from the system interface side
system.mem_ctrls.bytesWrittenSys               216000                       # Total written bytes from the system interface side
system.mem_ctrls.servicedByWrQ                    237                       # Number of DRAM read bursts serviced by the write queue
system.mem_ctrls.mergedWrBursts                     0                       # Number of DRAM write bursts merged with an existing one
system.mem_ctrls.neitherReadNorWriteReqs            0                       # Number of requests that are neither read nor write
system.mem_ctrls.perBankRdBursts::0               480                       # Per bank write bursts
system.mem_ctrls.perBankRdBursts::1               342                       # Per bank write bursts
system.mem_ctrls.perBankRdBursts::2               351                       # Per bank write bursts
system.mem_ctrls.perBankRdBursts::3               291                       # Per bank write bursts
system.mem_ctrls.perBankRdBursts::4                 0                       # Per bank write bursts
system.mem_ctrls.perBankRdBursts::5                 3                       # Per bank write bursts
system.mem_ctrls.perBankRdBursts::6               603                       # Per bank write bursts
system.mem_ctrls.perBankRdBursts::7               195                       # Per bank write bursts
system.mem_ctrls.perBankRdBursts::8               234                       # Per bank write bursts
system.mem_ctrls.perBankRdBursts::9               313                       # Per bank write bursts
system.mem_ctrls.perBankRdBursts::10              556                       # Per bank write bursts
system.mem_ctrls.perBankRdBursts::11              612                       # Per bank write bursts
system.mem_ctrls.perBankRdBursts::12             1936                       # Per bank write bursts
system.mem_ctrls.perBankRdBursts::13             2287                       # Per bank write bursts
system.mem_ctrls.perBankRdBursts::14             1725                       # Per bank write bursts
system.mem_ctrls.perBankRdBursts::15             1644                       # Per bank write bursts
system.mem_ctrls.perBankWrBursts::0               313                       # Per bank write bursts
system.mem_ctrls.perBankWrBursts::1               319                       # Per bank write bursts
system.mem_ctrls.perBankWrBursts::2               257                       # Per bank write bursts
system.mem_ctrls.perBankWrBursts::3                93                       # Per bank write bursts
system.mem_ctrls.perBankWrBursts::4                 0                       # Per bank write bursts
system.mem_ctrls.perBankWrBursts::5                 3                       # Per bank write bursts
system.mem_ctrls.perBankWrBursts::6               224                       # Per bank write bursts
system.mem_ctrls.perBankWrBursts::7                22                       # Per bank write bursts
system.mem_ctrls.perBankWrBursts::8                14                       # Per bank write bursts
system.mem_ctrls.perBankWrBursts::9                65                       # Per bank write bursts
system.mem_ctrls.perBankWrBursts::10              240                       # Per bank write bursts
system.mem_ctrls.perBankWrBursts::11              337                       # Per bank write bursts
system.mem_ctrls.perBankWrBursts::12              487                       # Per bank write bursts
system.mem_ctrls.perBankWrBursts::13              347                       # Per bank write bursts
system.mem_ctrls.perBankWrBursts::14              342                       # Per bank write bursts
system.mem_ctrls.perBankWrBursts::15              310                       # Per bank write bursts
system.mem_ctrls.numRdRetry                         0                       # Number of times read queue was full causing retry
system.mem_ctrls.numWrRetry                         0                       # Number of times write queue was full causing retry
system.mem_ctrls.totGap                   15273073500                       # Total gap between requests
system.mem_ctrls.readPktSize::0                     0                       # Read request sizes (log2)
system.mem_ctrls.readPktSize::1                     0                       # Read request sizes (log2)
system.mem_ctrls.readPktSize::2                     0                       # Read request sizes (log2)
system.mem_ctrls.readPktSize::3                     0                       # Read request sizes (log2)
system.mem_ctrls.readPktSize::4                     0                       # Read request sizes (log2)
system.mem_ctrls.readPktSize::5                     0                       # Read request sizes (log2)
system.mem_ctrls.readPktSize::6                 11809                       # Read request sizes (log2)
system.mem_ctrls.writePktSize::0                    0                       # Write request sizes (log2)
system.mem_ctrls.writePktSize::1                    0                       # Write request sizes (log2)
system.mem_ctrls.writePktSize::2                    0                       # Write request sizes (log2)
system.mem_ctrls.writePktSize::3                    0                       # Write request sizes (log2)
system.mem_ctrls.writePktSize::4                    0                       # Write request sizes (log2)
system.mem_ctrls.writePktSize::5                    0                       # Write request sizes (log2)
system.mem_ctrls.writePktSize::6                 3375                       # Write request sizes (log2)
system.mem_ctrls.rdQLenPdf::0                   10096                       # What read queue length does an incoming req see
system.mem_ctrls.rdQLenPdf::1                    1378                       # What read queue length does an incoming req see
system.mem_ctrls.rdQLenPdf::2                      94                       # What read queue length does an incoming req see
system.mem_ctrls.rdQLenPdf::3                       4                       # What read queue length does an incoming req see
system.mem_ctrls.rdQLenPdf::4                       0                       # What read queue length does an incoming req see
system.mem_ctrls.rdQLenPdf::5                       0                       # What read queue length does an incoming req see
system.mem_ctrls.rdQLenPdf::6                       0                       # What read queue length does an incoming req see
system.mem_ctrls.rdQLenPdf::7                       0                       # What read queue length does an incoming req see
system.mem_ctrls.rdQLenPdf::8                       0                       # What read queue length does an incoming req see
system.mem_ctrls.rdQLenPdf::9                       0                       # What read queue length does an incoming req see
system.mem_ctrls.rdQLenPdf::10                      0                       # What read queue length does an incoming req see
system.mem_ctrls.rdQLenPdf::11                      0                       # What read queue length does an incoming req see
system.mem_ctrls.rdQLenPdf::12                      0                       # What read queue length does an incoming req see
system.mem_ctrls.rdQLenPdf::13                      0                       # What read queue length does an incoming req see
system.mem_ctrls.rdQLenPdf::14                      0                       # What read queue length does an incoming req see
system.mem_ctrls.rdQLenPdf::15                      0                       # What read queue length does an incoming req see
system.mem_ctrls.rdQLenPdf::16                      0                       # What read queue length does an incoming req see
system.mem_ctrls.rdQLenPdf::17                      0                       # What read queue length does an incoming req see
system.mem_ctrls.rdQLenPdf::18                      0                       # What read queue length does an incoming req see
system.mem_ctrls.rdQLenPdf::19                      0                       # What read queue length does an incoming req see
system.mem_ctrls.rdQLenPdf::20                      0                       # What read queue length does an incoming req see
system.mem_ctrls.rdQLenPdf::21                      0                       # What read queue length does an incoming req see
system.mem_ctrls.rdQLenPdf::22                      0                       # What read queue length does an incoming req see
system.mem_ctrls.rdQLenPdf::23                      0                       # What read queue length does an incoming req see
system.mem_ctrls.rdQLenPdf::24                      0                       # What read queue length does an incoming req see
system.mem_ctrls.rdQLenPdf::25                      0                       # What read queue length does an incoming req see
system.mem_ctrls.rdQLenPdf::26                      0                       # What read queue length does an incoming req see
system.mem_ctrls.rdQLenPdf::27                      0                       # What read queue length does an incoming req see
system.mem_ctrls.rdQLenPdf::28                      0                       # What read queue length does an incoming req see
system.mem_ctrls.rdQLenPdf::29                      0                       # What read queue length does an incoming req see
system.mem_ctrls.rdQLenPdf::30                      0                       # What read queue length does an incoming req see
system.mem_ctrls.rdQLenPdf::31                      0                       # What read queue length does an incoming req see
system.mem_ctrls.wrQLenPdf::0                       0                       # What write queue length does an incoming req see
system.mem_ctrls.wrQLenPdf::1                       0                       # What write queue length does an incoming req see
system.mem_ctrls.wrQLenPdf::2                       0                       # What write queue length does an incoming req see
system.mem_ctrls.wrQLenPdf::3                       0                       # What write queue length does an incoming req see
system.mem_ctrls.wrQLenPdf::4                       0                       # What write queue length does an incoming req see
system.mem_ctrls.wrQLenPdf::5                       0                       # What write queue length does an incoming req see
system.mem_ctrls.wrQLenPdf::6                       0                       # What write queue length does an incoming req see
system.mem_ctrls.wrQLenPdf::7                       0                       # What write queue length does an incoming req see
system.mem_ctrls.wrQLenPdf::8                       0                       # What write queue length does an incoming req see
system.mem_ctrls.wrQLenPdf::9                       0                       # What write queue length does an incoming req see
system.mem_ctrls.wrQLenPdf::10                      0                       # What write queue length does an incoming req see
system.mem_ctrls.wrQLenPdf::11                      0                       # What write queue length does an incoming req see
system.mem_ctrls.wrQLenPdf::12                      0                       # What write queue length does an incoming req see
system.mem_ctrls.wrQLenPdf::13                      0                       # What write queue length does an incoming req see
system.mem_ctrls.wrQLenPdf::14                      0                       # What write queue length does an incoming req see
system.mem_ctrls.wrQLenPdf::15                    111                       # What write queue length does an incoming req see
system.mem_ctrls.wrQLenPdf::16                    113                       # What write queue length does an incoming req see
system.mem_ctrls.wrQLenPdf::17                    184                       # What write queue length does an incoming req see
system.mem_ctrls.wrQLenPdf::18                    196                       # What write queue length does an incoming req see
system.mem_ctrls.wrQLenPdf::19                    197                       # What write queue length does an incoming req see
system.mem_ctrls.wrQLenPdf::20                    197                       # What write queue length does an incoming req see
system.mem_ctrls.wrQLenPdf::21                    196                       # What write queue length does an incoming req see
system.mem_ctrls.wrQLenPdf::22                    197                       # What write queue length does an incoming req see
system.mem_ctrls.wrQLenPdf::23                    196                       # What write queue length does an incoming req see
system.mem_ctrls.wrQLenPdf::24                    197                       # What write queue length does an incoming req see
system.mem_ctrls.wrQLenPdf::25                    196                       # What write queue length does an incoming req see
system.mem_ctrls.wrQLenPdf::26                    196                       # What write queue length does an incoming req see
system.mem_ctrls.wrQLenPdf::27                    199                       # What write queue length does an incoming req see
system.mem_ctrls.wrQLenPdf::28                    203                       # What write queue length does an incoming req see
system.mem_ctrls.wrQLenPdf::29                    200                       # What write queue length does an incoming req see
system.mem_ctrls.wrQLenPdf::30                    204                       # What write queue length does an incoming req see
system.mem_ctrls.wrQLenPdf::31                    197                       # What write queue length does an incoming req see
system.mem_ctrls.wrQLenPdf::32                    196                       # What write queue length does an incoming req see
system.mem_ctrls.wrQLenPdf::33                      0                       # What write queue length does an incoming req see
system.mem_ctrls.wrQLenPdf::34                      0                       # What write queue length does an incoming req see
system.mem_ctrls.wrQLenPdf::35                      0                       # What write queue length does an incoming req see
system.mem_ctrls.wrQLenPdf::36                      0                       # What write queue length does an incoming req see
system.mem_ctrls.wrQLenPdf::37                      0                       # What write queue length does an incoming req see
system.mem_ctrls.wrQLenPdf::38                      0                       # What write queue length does an incoming req see
system.mem_ctrls.wrQLenPdf::39                      0                       # What write queue length does an incoming req see
system.mem_ctrls.wrQLenPdf::40                      0                       # What write queue length does an incoming req see
system.mem_ctrls.wrQLenPdf::41                      0                       # What write queue length does an incoming req see
system.mem_ctrls.wrQLenPdf::42                      0                       # What write queue length does an incoming req see
system.mem_ctrls.wrQLenPdf::43                      0                       # What write queue length does an incoming req see
system.mem_ctrls.wrQLenPdf::44                      0                       # What write queue length does an incoming req see
system.mem_ctrls.wrQLenPdf::45                      0                       # What write queue length does an incoming req see
system.mem_ctrls.wrQLenPdf::46                      0                       # What write queue length does an incoming req see
system.mem_ctrls.wrQLenPdf::47                      0                       # What write queue length does an incoming req see
system.mem_ctrls.wrQLenPdf::48                      0                       # What write queue length does an incoming req see
system.mem_ctrls.wrQLenPdf::49                      0                       # What write queue length does an incoming req see
system.mem_ctrls.wrQLenPdf::50                      0                       # What write queue length does an incoming req see
system.mem_ctrls.wrQLenPdf::51                      0                       # What write queue length does an incoming req see
system.mem_ctrls.wrQLenPdf::52                      0                       # What write queue length does an incoming req see
system.mem_ctrls.wrQLenPdf::53                      0                       # What write queue length does an incoming req see
system.mem_ctrls.wrQLenPdf::54                      0                       # What write queue length does an incoming req see
system.mem_ctrls.wrQLenPdf::55                      0                       # What write queue length does an incoming req see
system.mem_ctrls.wrQLenPdf::56                      0                       # What write queue length does an incoming req see
system.mem_ctrls.wrQLenPdf::57                      0                       # What write queue length does an incoming req see
system.mem_ctrls.wrQLenPdf::58                      0                       # What write queue length does an incoming req see
system.mem_ctrls.wrQLenPdf::59                      0                       # What write queue length does an incoming req see
system.mem_ctrls.wrQLenPdf::60                      0                       # What write queue length does an incoming req see
system.mem_ctrls.wrQLenPdf::61                      0                       # What write queue length does an incoming req see
system.mem_ctrls.wrQLenPdf::62                      0                       # What write queue length does an incoming req see
system.mem_ctrls.wrQLenPdf::63                      0                       # What write queue length does an incoming req see
system.mem_ctrls.bytesPerActivate::samples        10730                       # Bytes accessed per row activation
system.mem_ctrls.bytesPerActivate::mean     89.128798                       # Bytes accessed per row activation
system.mem_ctrls.bytesPerActivate::gmean    80.228814                       # Bytes accessed per row activation
system.mem_ctrls.bytesPerActivate::stdev    52.634861                       # Bytes accessed per row activation
system.mem_ctrls.bytesPerActivate::64-127         7943     74.03%     74.03% # Bytes accessed per row activation
system.mem_ctrls.bytesPerActivate::128-191         1918     17.88%     91.90% # Bytes accessed per row activation
system.mem_ctrls.bytesPerActivate::192-255          536      5.00%     96.90% # Bytes accessed per row activation
system.mem_ctrls.bytesPerActivate::256-319          199      1.85%     98.75% # Bytes accessed per row activation
system.mem_ctrls.bytesPerActivate::320-383           78      0.73%     99.48% # Bytes accessed per row activation
system.mem_ctrls.bytesPerActivate::384-447           33      0.31%     99.79% # Bytes accessed per row activation
system.mem_ctrls.bytesPerActivate::448-511           16      0.15%     99.93% # Bytes accessed per row activation
system.mem_ctrls.bytesPerActivate::512-575            5      0.05%     99.98% # Bytes accessed per row activation
system.mem_ctrls.bytesPerActivate::576-639            1      0.01%     99.99% # Bytes accessed per row activation
system.mem_ctrls.bytesPerActivate::704-767            1      0.01%    100.00% # Bytes accessed per row activation
system.mem_ctrls.bytesPerActivate::total        10730                       # Bytes accessed per row activation
system.mem_ctrls.rdPerTurnAround::samples          196                       # Reads before turning the bus around for writes
system.mem_ctrls.rdPerTurnAround::mean      59.020408                       # Reads before turning the bus around for writes
system.mem_ctrls.rdPerTurnAround::gmean     57.389621                       # Reads before turning the bus around for writes
system.mem_ctrls.rdPerTurnAround::stdev     13.873775                       # Reads before turning the bus around for writes
system.mem_ctrls.rdPerTurnAround::24-27             1      0.51%      0.51% # Reads before turning the bus around for writes
system.mem_ctrls.rdPerTurnAround::28-31             3      1.53%      2.04% # Reads before turning the bus around for writes
system.mem_ctrls.rdPerTurnAround::32-35             2      1.02%      3.06% # Reads before turning the bus around for writes
system.mem_ctrls.rdPerTurnAround::36-39             5      2.55%      5.61% # Reads before turning the bus around for writes
system.mem_ctrls.rdPerTurnAround::40-43            13      6.63%     12.24% # Reads before turning the bus around for writes
system.mem_ctrls.rdPerTurnAround::44-47            17      8.67%     20.92% # Reads before turning the bus around for writes
system.mem_ctrls.rdPerTurnAround::48-51            19      9.69%     30.61% # Reads before turning the bus around for writes
system.mem_ctrls.rdPerTurnAround::52-55            26     13.27%     43.88% # Reads before turning the bus around for writes
system.mem_ctrls.rdPerTurnAround::56-59            19      9.69%     53.57% # Reads before turning the bus around for writes
system.mem_ctrls.rdPerTurnAround::60-63            19      9.69%     63.27% # Reads before turning the bus around for writes
system.mem_ctrls.rdPerTurnAround::64-67            22     11.22%     74.49% # Reads before turning the bus around for writes
system.mem_ctrls.rdPerTurnAround::68-71            16      8.16%     82.65% # Reads before turning the bus around for writes
system.mem_ctrls.rdPerTurnAround::72-75            13      6.63%     89.29% # Reads before turning the bus around for writes
system.mem_ctrls.rdPerTurnAround::76-79             7      3.57%     92.86% # Reads before turning the bus around for writes
system.mem_ctrls.rdPerTurnAround::80-83             5      2.55%     95.41% # Reads before turning the bus around for writes
system.mem_ctrls.rdPerTurnAround::84-87             1      0.51%     95.92% # Reads before turning the bus around for writes
system.mem_ctrls.rdPerTurnAround::88-91             4      2.04%     97.96% # Reads before turning the bus around for writes
system.mem_ctrls.rdPerTurnAround::92-95             2      1.02%     98.98% # Reads before turning the bus around for writes
system.mem_ctrls.rdPerTurnAround::96-99             1      0.51%     99.49% # Reads before turning the bus around for writes
system.mem_ctrls.rdPerTurnAround::104-107            1      0.51%    100.00% # Reads before turning the bus around for writes
system.mem_ctrls.rdPerTurnAround::total           196                       # Reads before turning the bus around for writes
system.mem_ctrls.wrPerTurnAround::samples          196                       # Writes before turning the bus around for reads
system.mem_ctrls.wrPerTurnAround::mean      17.209184                       # Writes before turning the bus around for reads
system.mem_ctrls.wrPerTurnAround::gmean     17.175483                       # Writes before turning the bus around for reads
system.mem_ctrls.wrPerTurnAround::stdev      1.077565                       # Writes before turning the bus around for reads
system.mem_ctrls.wrPerTurnAround::16               83     42.35%     42.35% # Writes before turning the bus around for reads
system.mem_ctrls.wrPerTurnAround::17                2      1.02%     43.37% # Writes before turning the bus around for reads
system.mem_ctrls.wrPerTurnAround::18               99     50.51%     93.88% # Writes before turning the bus around for reads
system.mem_ctrls.wrPerTurnAround::19               11      5.61%     99.49% # Writes before turning the bus around for reads
system.mem_ctrls.wrPerTurnAround::20                1      0.51%    100.00% # Writes before turning the bus around for reads
system.mem_ctrls.wrPerTurnAround::total           196                       # Writes before turning the bus around for reads
system.mem_ctrls.totQLat                    736993750                       # Total ticks spent queuing
system.mem_ctrls.totMemAccLat               953968750                       # Total ticks spent from burst creation until serviced by the DRAM
system.mem_ctrls.totBusLat                   57860000                       # Total ticks spent in databus transfers
system.mem_ctrls.avgQLat                     63687.67                       # Average queueing delay per DRAM burst
system.mem_ctrls.avgBusLat                    5000.00                       # Average bus latency per DRAM burst
system.mem_ctrls.avgMemAccLat                82437.67                       # Average memory access latency per DRAM burst
system.mem_ctrls.avgRdBW                        48.51                       # Average DRAM read bandwidth in MiByte/s
system.mem_ctrls.avgWrBW                        14.14                       # Average achieved write bandwidth in MiByte/s
system.mem_ctrls.avgRdBWSys                     49.50                       # Average system read bandwidth in MiByte/s
system.mem_ctrls.avgWrBWSys                     14.15                       # Average system write bandwidth in MiByte/s
system.mem_ctrls.peakBW                      12800.00                       # Theoretical peak bandwidth in MiByte/s
system.mem_ctrls.busUtil                         0.49                       # Data bus utilization in percentage
system.mem_ctrls.busUtilRead                     0.38                       # Data bus utilization in percentage for reads
system.mem_ctrls.busUtilWrite                    0.11                       # Data bus utilization in percentage for writes
system.mem_ctrls.avgRdQLen                       1.10                       # Average read queue length when enqueuing
system.mem_ctrls.avgWrQLen                      24.70                       # Average write queue length when enqueuing
system.mem_ctrls.readRowHits                     2605                       # Number of row buffer hits during reads
system.mem_ctrls.writeRowHits                    1608                       # Number of row buffer hits during writes
system.mem_ctrls.readRowHitRate                 22.51                       # Row buffer hit rate for reads
system.mem_ctrls.writeRowHitRate                47.64                       # Row buffer hit rate for writes
system.mem_ctrls.avgGap                    1005866.27                       # Average gap between requests
system.mem_ctrls.pageHitRate                    28.19                       # Row buffer hit rate, read and write combined
system.mem_ctrls_0.actEnergy                 17735760                       # Energy for activate commands per rank (pJ)
system.mem_ctrls_0.preEnergy                  9419190                       # Energy for precharge commands per rank (pJ)
system.mem_ctrls_0.readEnergy                16172100                       # Energy for read commands per rank (pJ)
system.mem_ctrls_0.writeEnergy                6425820                       # Energy for write commands per rank (pJ)
system.mem_ctrls_0.refreshEnergy         1039356240.000000                       # Energy for refresh commands per rank (pJ)
system.mem_ctrls_0.actBackEnergy            385722420                       # Energy for active background per rank (pJ)
system.mem_ctrls_0.preBackEnergy             60097920                       # Energy for precharge background per rank (pJ)
system.mem_ctrls_0.actPowerDownEnergy      2193838230                       # Energy for active power-down per rank (pJ)
system.mem_ctrls_0.prePowerDownEnergy      1623186240                       # Energy for precharge power-down per rank (pJ)
system.mem_ctrls_0.selfRefreshEnergy       1492461840                       # Energy for self refresh per rank (pJ)
system.mem_ctrls_0.totalEnergy             6845050620                       # Total energy per rank (pJ)
system.mem_ctrls_0.averagePower            448.345866                       # Core power per rank (mW)
system.mem_ctrls_0.totalIdleTime          14256413125                       # Total Idle time Per DRAM Rank
system.mem_ctrls_0.memoryStateTime::IDLE    119178750                       # Time in different power states
system.mem_ctrls_0.memoryStateTime::REF     442306000                       # Time in different power states
system.mem_ctrls_0.memoryStateTime::SREF   5225442375                       # Time in different power states
system.mem_ctrls_0.memoryStateTime::PRE_PDN   4227052750                       # Time in different power states
system.mem_ctrls_0.memoryStateTime::ACT     442302250                       # Time in different power states
system.mem_ctrls_0.memoryStateTime::ACT_PDN   4811062000                       # Time in different power states
system.mem_ctrls_1.actEnergy                 58890720                       # Energy for activate commands per rank (pJ)
system.mem_ctrls_1.preEnergy                 31301160                       # Energy for precharge commands per rank (pJ)
system.mem_ctrls_1.readEnergy                66451980                       # Energy for read commands per rank (pJ)
system.mem_ctrls_1.writeEnergy               11181240                       # Energy for write commands per rank (pJ)
system.mem_ctrls_1.refreshEnergy         1309797840.000000                       # Energy for refresh commands per rank (pJ)
system.mem_ctrls_1.actBackEnergy            502575270                       # Energy for active background per rank (pJ)
system.mem_ctrls_1.preBackEnergy             62537280                       # Energy for precharge background per rank (pJ)
system.mem_ctrls_1.actPowerDownEnergy      3612195450                       # Energy for active power-down per rank (pJ)
system.mem_ctrls_1.prePowerDownEnergy      1746568800                       # Energy for precharge power-down per rank (pJ)
system.mem_ctrls_1.selfRefreshEnergy        585384960                       # Energy for self refresh per rank (pJ)
system.mem_ctrls_1.totalEnergy             7987354590                       # Total energy per rank (pJ)
system.mem_ctrls_1.averagePower            523.165950                       # Core power per rank (mW)
system.mem_ctrls_1.totalIdleTime          13964749625                       # Total Idle time Per DRAM Rank
system.mem_ctrls_1.memoryStateTime::IDLE    111900000                       # Time in different power states
system.mem_ctrls_1.memoryStateTime::REF     556496000                       # Time in different power states
system.mem_ctrls_1.memoryStateTime::SREF   1531443875                       # Time in different power states
system.mem_ctrls_1.memoryStateTime::PRE_PDN   4548338250                       # Time in different power states
system.mem_ctrls_1.memoryStateTime::ACT     597667250                       # Time in different power states
system.mem_ctrls_1.memoryStateTime::ACT_PDN   7921498750                       # Time in different power states
system.pwrStateResidencyTicks::UNDEFINED  15267344125                       # Cumulative time (in ticks) in various power states
system.cpu0.branchPred.lookups                6675151                       # Number of BP lookups
system.cpu0.branchPred.condPredicted          6675151                       # Number of conditional branches predicted
system.cpu0.branchPred.condIncorrect           287101                       # Number of conditional branches incorrect
system.cpu0.branchPred.BTBLookups             5300013                       # Number of BTB lookups
system.cpu0.branchPred.BTBHits                      0                       # Number of BTB hits
system.cpu0.branchPred.BTBCorrect                   0                       # Number of correct BTB predictions (this stat may not work properly.
system.cpu0.branchPred.BTBHitPct             0.000000                       # BTB Hit Percentage
system.cpu0.branchPred.usedRAS                 184398                       # Number of times the RAS was used to get a target.
system.cpu0.branchPred.RASInCorrect             25887                       # Number of incorrect RAS predictions.
system.cpu0.branchPred.indirectLookups        5300013                       # Number of indirect predictor lookups.
system.cpu0.branchPred.indirectHits           2832815                       # Number of indirect target hits.
system.cpu0.branchPred.indirectMisses         2467198                       # Number of indirect misses.
system.cpu0.branchPredindirectMispredicted        97480                       # Number of mispredicted indirect branches.
system.cpu_voltage_domain.voltage                   1                       # Voltage in Volts
system.cpu_clk_domain.clock                       500                       # Clock period in ticks
system.cpu0.dtb.walker.pwrStateResidencyTicks::UNDEFINED  15267344125                       # Cumulative time (in ticks) in various power states
system.cpu0.dtb.rdAccesses                    3284012                       # TLB accesses on read requests
system.cpu0.dtb.wrAccesses                     212097                       # TLB accesses on write requests
system.cpu0.dtb.rdMisses                       701885                       # TLB misses on read requests
system.cpu0.dtb.wrMisses                         4055                       # TLB misses on write requests
system.cpu0.apic_clk_domain.clock                8000                       # Clock period in ticks
system.cpu0.interrupts.pwrStateResidencyTicks::UNDEFINED  15267344125                       # Cumulative time (in ticks) in various power states
system.cpu0.itb.walker.pwrStateResidencyTicks::UNDEFINED  15267344125                       # Cumulative time (in ticks) in various power states
system.cpu0.itb.rdAccesses                          0                       # TLB accesses on read requests
system.cpu0.itb.wrAccesses                    5590967                       # TLB accesses on write requests
system.cpu0.itb.rdMisses                            0                       # TLB misses on read requests
system.cpu0.itb.wrMisses                        21109                       # TLB misses on write requests
system.cpu0.workload.numSyscalls                    1                       # Number of system calls
system.cpu0.pwrStateResidencyTicks::ON    15267344125                       # Cumulative time (in ticks) in various power states
system.cpu0.numCycles                        30534689                       # number of cpu cycles simulated
system.cpu0.numWorkItemsStarted                     0                       # number of work items this cpu started
system.cpu0.numWorkItemsCompleted                   0                       # number of work items this cpu completed
system.cpu0.fetch.icacheStallCycles           5713037                       # Number of cycles fetch is stalled on an Icache miss
system.cpu0.fetch.Insts                      19305706                       # Number of instructions fetch has processed
system.cpu0.fetch.Branches                    6675151                       # Number of branches that fetch encountered
system.cpu0.fetch.predictedBranches           3017213                       # Number of branches that fetch has predicted taken
system.cpu0.fetch.Cycles                     24357771                       # Number of cycles fetch has run and was not squashing or blocked
system.cpu0.fetch.SquashCycles                 587688                       # Number of cycles fetch has spent squashing
system.cpu0.fetch.TlbCycles                      1317                       # Number of cycles fetch has spent waiting for tlb
system.cpu0.fetch.MiscStallCycles                4828                       # Number of cycles fetch has spent waiting on interrupts, or bad addresses, or out of MSHRs
system.cpu0.fetch.PendingTrapStallCycles       155680                       # Number of stall cycles due to pending traps
system.cpu0.fetch.PendingQuiesceStallCycles            1                       # Number of stall cycles due to pending quiesce instructions
system.cpu0.fetch.CacheLines                  5569858                       # Number of cache lines fetched
system.cpu0.fetch.IcacheSquashes                48775                       # Number of outstanding Icache misses that were squashed
system.cpu0.fetch.ItlbSquashes                     28                       # Number of outstanding ITLB misses that were squashed
system.cpu0.fetch.rateDist::samples          30526478                       # Number of instructions fetched each cycle (Total)
system.cpu0.fetch.rateDist::mean             1.272179                       # Number of instructions fetched each cycle (Total)
system.cpu0.fetch.rateDist::stdev            2.621027                       # Number of instructions fetched each cycle (Total)
system.cpu0.fetch.rateDist::underflows              0      0.00%      0.00% # Number of instructions fetched each cycle (Total)
system.cpu0.fetch.rateDist::0                23030461     75.44%     75.44% # Number of instructions fetched each cycle (Total)
system.cpu0.fetch.rateDist::1                   86094      0.28%     75.73% # Number of instructions fetched each cycle (Total)
system.cpu0.fetch.rateDist::2                 2745600      8.99%     84.72% # Number of instructions fetched each cycle (Total)
system.cpu0.fetch.rateDist::3                  103184      0.34%     85.06% # Number of instructions fetched each cycle (Total)
system.cpu0.fetch.rateDist::4                  516911      1.69%     86.75% # Number of instructions fetched each cycle (Total)
system.cpu0.fetch.rateDist::5                  242309      0.79%     87.55% # Number of instructions fetched each cycle (Total)
system.cpu0.fetch.rateDist::6                  330517      1.08%     88.63% # Number of instructions fetched each cycle (Total)
system.cpu0.fetch.rateDist::7                   85220      0.28%     88.91% # Number of instructions fetched each cycle (Total)
system.cpu0.fetch.rateDist::8                 3386182     11.09%    100.00% # Number of instructions fetched each cycle (Total)
system.cpu0.fetch.rateDist::overflows               0      0.00%    100.00% # Number of instructions fetched each cycle (Total)
system.cpu0.fetch.rateDist::min_value               0                       # Number of instructions fetched each cycle (Total)
system.cpu0.fetch.rateDist::max_value               8                       # Number of instructions fetched each cycle (Total)
system.cpu0.fetch.rateDist::total            30526478                       # Number of instructions fetched each cycle (Total)
system.cpu0.fetch.branchRate                 0.218609                       # Number of branch fetches per cycle
system.cpu0.fetch.rate                       0.632255                       # Number of inst fetches per cycle
system.cpu0.decode.IdleCycles                 3029505                       # Number of cycles decode is idle
system.cpu0.decode.BlockedCycles             22054279                       # Number of cycles decode is blocked
system.cpu0.decode.RunCycles                  3931443                       # Number of cycles decode is running
system.cpu0.decode.UnblockCycles              1217407                       # Number of cycles decode is unblocking
system.cpu0.decode.SquashCycles                293844                       # Number of cycles decode is squashing
system.cpu0.decode.DecodedInsts              33086160                       # Number of instructions handled by decode
system.cpu0.rename.SquashCycles                293844                       # Number of cycles rename is squashing
system.cpu0.rename.IdleCycles                 3498591                       # Number of cycles rename is idle
system.cpu0.rename.BlockCycles               17914561                       # Number of cycles rename is blocking
system.cpu0.rename.serializeStallCycles         96478                       # count of cycles rename stalled for serializing inst
system.cpu0.rename.RunCycles                  4442986                       # Number of cycles rename is running
system.cpu0.rename.UnblockCycles              4280018                       # Number of cycles rename is unblocking
system.cpu0.rename.RenamedInsts              31771522                       # Number of instructions processed by rename
system.cpu0.rename.ROBFullEvents                73616                       # Number of times rename has blocked due to ROB full
system.cpu0.rename.IQFullEvents               3791562                       # Number of times rename has blocked due to IQ full
system.cpu0.rename.LQFullEvents                109720                       # Number of times rename has blocked due to LQ full
system.cpu0.rename.SQFullEvents                160521                       # Number of times rename has blocked due to SQ full
system.cpu0.rename.RenamedOperands           37846191                       # Number of destination operands rename has renamed
system.cpu0.rename.RenameLookups             88485929                       # Number of register rename lookups that rename has made
system.cpu0.rename.int_rename_lookups        41588963                       # Number of integer rename lookups
system.cpu0.rename.fp_rename_lookups           163607                       # Number of floating rename lookups
system.cpu0.rename.CommittedMaps             14018293                       # Number of HB maps that are committed
system.cpu0.rename.UndoneMaps                23828023                       # Number of HB maps that are undone due to squashing
system.cpu0.rename.serializingInsts              1467                       # count of serializing insts renamed
system.cpu0.rename.tempSerializingInsts          1739                       # count of temporary serializing insts renamed
system.cpu0.rename.skidInsts                  7565718                       # count of insts added to the skid buffer
system.cpu0.memDep0.insertedLoads             5709197                       # Number of loads inserted to the mem dependence unit.
system.cpu0.memDep0.insertedStores             319603                       # Number of stores inserted to the mem dependence unit.
system.cpu0.memDep0.conflictingLoads            23500                       # Number of conflicting loads.
system.cpu0.memDep0.conflictingStores           21386                       # Number of conflicting stores.
system.cpu0.iq.iqInstsAdded                  30054218                       # Number of instructions added to the IQ (excludes non-spec)
system.cpu0.iq.iqNonSpecInstsAdded              19080                       # Number of non-speculative instructions added to the IQ
system.cpu0.iq.iqInstsIssued                 21707783                       # Number of instructions issued
system.cpu0.iq.iqSquashedInstsIssued            32915                       # Number of squashed instructions issued
system.cpu0.iq.iqSquashedInstsExamined       18383728                       # Number of squashed instructions iterated over during squash; mainly for profiling
system.cpu0.iq.iqSquashedOperandsExamined     38714506                       # Number of squashed operands that are examined and possibly removed from graph
system.cpu0.iq.iqSquashedNonSpecRemoved         19079                       # Number of squashed non-spec instructions that were removed
system.cpu0.iq.issued_per_cycle::samples     30526478                       # Number of insts issued each cycle
system.cpu0.iq.issued_per_cycle::mean        0.711113                       # Number of insts issued each cycle
system.cpu0.iq.issued_per_cycle::stdev       1.440799                       # Number of insts issued each cycle
system.cpu0.iq.issued_per_cycle::underflows            0      0.00%      0.00% # Number of insts issued each cycle
system.cpu0.iq.issued_per_cycle::0           22068954     72.29%     72.29% # Number of insts issued each cycle
system.cpu0.iq.issued_per_cycle::1            3055598     10.01%     82.30% # Number of insts issued each cycle
system.cpu0.iq.issued_per_cycle::2            1794550      5.88%     88.18% # Number of insts issued each cycle
system.cpu0.iq.issued_per_cycle::3            1278276      4.19%     92.37% # Number of insts issued each cycle
system.cpu0.iq.issued_per_cycle::4            1303350      4.27%     96.64% # Number of insts issued each cycle
system.cpu0.iq.issued_per_cycle::5             458650      1.50%     98.14% # Number of insts issued each cycle
system.cpu0.iq.issued_per_cycle::6             340990      1.12%     99.26% # Number of insts issued each cycle
system.cpu0.iq.issued_per_cycle::7             133213      0.44%     99.70% # Number of insts issued each cycle
system.cpu0.iq.issued_per_cycle::8              92897      0.30%    100.00% # Number of insts issued each cycle
system.cpu0.iq.issued_per_cycle::overflows            0      0.00%    100.00% # Number of insts issued each cycle
system.cpu0.iq.issued_per_cycle::min_value            0                       # Number of insts issued each cycle
system.cpu0.iq.issued_per_cycle::max_value            8                       # Number of insts issued each cycle
system.cpu0.iq.issued_per_cycle::total       30526478                       # Number of insts issued each cycle
system.cpu0.iq.fu_full::No_OpClass                  0      0.00%      0.00% # attempts to use FU when none available
system.cpu0.iq.fu_full::IntAlu                  53142     72.30%     72.30% # attempts to use FU when none available
system.cpu0.iq.fu_full::IntMult                     0      0.00%     72.30% # attempts to use FU when none available
system.cpu0.iq.fu_full::IntDiv                      0      0.00%     72.30% # attempts to use FU when none available
system.cpu0.iq.fu_full::FloatAdd                 4771      6.49%     78.79% # attempts to use FU when none available
system.cpu0.iq.fu_full::FloatCmp                    0      0.00%     78.79% # attempts to use FU when none available
system.cpu0.iq.fu_full::FloatCvt                    0      0.00%     78.79% # attempts to use FU when none available
system.cpu0.iq.fu_full::FloatMult                   0      0.00%     78.79% # attempts to use FU when none available
system.cpu0.iq.fu_full::FloatMultAcc                0      0.00%     78.79% # attempts to use FU when none available
system.cpu0.iq.fu_full::FloatDiv                    0      0.00%     78.79% # attempts to use FU when none available
system.cpu0.iq.fu_full::FloatMisc                   0      0.00%     78.79% # attempts to use FU when none available
system.cpu0.iq.fu_full::FloatSqrt                   0      0.00%     78.79% # attempts to use FU when none available
system.cpu0.iq.fu_full::SimdAdd                     0      0.00%     78.79% # attempts to use FU when none available
system.cpu0.iq.fu_full::SimdAddAcc                  0      0.00%     78.79% # attempts to use FU when none available
system.cpu0.iq.fu_full::SimdAlu                     0      0.00%     78.79% # attempts to use FU when none available
system.cpu0.iq.fu_full::SimdCmp                     0      0.00%     78.79% # attempts to use FU when none available
system.cpu0.iq.fu_full::SimdCvt                     0      0.00%     78.79% # attempts to use FU when none available
system.cpu0.iq.fu_full::SimdMisc                    0      0.00%     78.79% # attempts to use FU when none available
system.cpu0.iq.fu_full::SimdMult                    0      0.00%     78.79% # attempts to use FU when none available
system.cpu0.iq.fu_full::SimdMultAcc                 0      0.00%     78.79% # attempts to use FU when none available
system.cpu0.iq.fu_full::SimdShift                   0      0.00%     78.79% # attempts to use FU when none available
system.cpu0.iq.fu_full::SimdShiftAcc                0      0.00%     78.79% # attempts to use FU when none available
system.cpu0.iq.fu_full::SimdSqrt                    0      0.00%     78.79% # attempts to use FU when none available
system.cpu0.iq.fu_full::SimdFloatAdd                0      0.00%     78.79% # attempts to use FU when none available
system.cpu0.iq.fu_full::SimdFloatAlu                0      0.00%     78.79% # attempts to use FU when none available
system.cpu0.iq.fu_full::SimdFloatCmp                0      0.00%     78.79% # attempts to use FU when none available
system.cpu0.iq.fu_full::SimdFloatCvt                0      0.00%     78.79% # attempts to use FU when none available
system.cpu0.iq.fu_full::SimdFloatDiv                0      0.00%     78.79% # attempts to use FU when none available
system.cpu0.iq.fu_full::SimdFloatMisc               0      0.00%     78.79% # attempts to use FU when none available
system.cpu0.iq.fu_full::SimdFloatMult               0      0.00%     78.79% # attempts to use FU when none available
system.cpu0.iq.fu_full::SimdFloatMultAcc            0      0.00%     78.79% # attempts to use FU when none available
system.cpu0.iq.fu_full::SimdFloatSqrt               0      0.00%     78.79% # attempts to use FU when none available
system.cpu0.iq.fu_full::MemRead                 13519     18.39%     97.18% # attempts to use FU when none available
system.cpu0.iq.fu_full::MemWrite                 1281      1.74%     98.92% # attempts to use FU when none available
system.cpu0.iq.fu_full::FloatMemRead              532      0.72%     99.65% # attempts to use FU when none available
system.cpu0.iq.fu_full::FloatMemWrite             259      0.35%    100.00% # attempts to use FU when none available
system.cpu0.iq.fu_full::IprAccess                   0      0.00%    100.00% # attempts to use FU when none available
system.cpu0.iq.fu_full::InstPrefetch                0      0.00%    100.00% # attempts to use FU when none available
system.cpu0.iq.FU_type_0::No_OpClass            75228      0.35%      0.35% # Type of FU issued
system.cpu0.iq.FU_type_0::IntAlu             17812320     82.05%     82.40% # Type of FU issued
system.cpu0.iq.FU_type_0::IntMult                4006      0.02%     82.42% # Type of FU issued
system.cpu0.iq.FU_type_0::IntDiv                40437      0.19%     82.61% # Type of FU issued
system.cpu0.iq.FU_type_0::FloatAdd              60200      0.28%     82.88% # Type of FU issued
system.cpu0.iq.FU_type_0::FloatCmp                  0      0.00%     82.88% # Type of FU issued
system.cpu0.iq.FU_type_0::FloatCvt                  0      0.00%     82.88% # Type of FU issued
system.cpu0.iq.FU_type_0::FloatMult                 0      0.00%     82.88% # Type of FU issued
system.cpu0.iq.FU_type_0::FloatMultAcc              0      0.00%     82.88% # Type of FU issued
system.cpu0.iq.FU_type_0::FloatDiv                  0      0.00%     82.88% # Type of FU issued
system.cpu0.iq.FU_type_0::FloatMisc                 0      0.00%     82.88% # Type of FU issued
system.cpu0.iq.FU_type_0::FloatSqrt                 0      0.00%     82.88% # Type of FU issued
system.cpu0.iq.FU_type_0::SimdAdd                   0      0.00%     82.88% # Type of FU issued
system.cpu0.iq.FU_type_0::SimdAddAcc                0      0.00%     82.88% # Type of FU issued
system.cpu0.iq.FU_type_0::SimdAlu                   0      0.00%     82.88% # Type of FU issued
system.cpu0.iq.FU_type_0::SimdCmp                   0      0.00%     82.88% # Type of FU issued
system.cpu0.iq.FU_type_0::SimdCvt                   0      0.00%     82.88% # Type of FU issued
system.cpu0.iq.FU_type_0::SimdMisc                  0      0.00%     82.88% # Type of FU issued
system.cpu0.iq.FU_type_0::SimdMult                  0      0.00%     82.88% # Type of FU issued
system.cpu0.iq.FU_type_0::SimdMultAcc               0      0.00%     82.88% # Type of FU issued
system.cpu0.iq.FU_type_0::SimdShift                 0      0.00%     82.88% # Type of FU issued
system.cpu0.iq.FU_type_0::SimdShiftAcc              0      0.00%     82.88% # Type of FU issued
system.cpu0.iq.FU_type_0::SimdSqrt                  0      0.00%     82.88% # Type of FU issued
system.cpu0.iq.FU_type_0::SimdFloatAdd              0      0.00%     82.88% # Type of FU issued
system.cpu0.iq.FU_type_0::SimdFloatAlu              0      0.00%     82.88% # Type of FU issued
system.cpu0.iq.FU_type_0::SimdFloatCmp              0      0.00%     82.88% # Type of FU issued
system.cpu0.iq.FU_type_0::SimdFloatCvt              0      0.00%     82.88% # Type of FU issued
system.cpu0.iq.FU_type_0::SimdFloatDiv              0      0.00%     82.88% # Type of FU issued
system.cpu0.iq.FU_type_0::SimdFloatMisc             0      0.00%     82.88% # Type of FU issued
system.cpu0.iq.FU_type_0::SimdFloatMult             0      0.00%     82.88% # Type of FU issued
system.cpu0.iq.FU_type_0::SimdFloatMultAcc            0      0.00%     82.88% # Type of FU issued
system.cpu0.iq.FU_type_0::SimdFloatSqrt             0      0.00%     82.88% # Type of FU issued
system.cpu0.iq.FU_type_0::MemRead             3474363     16.01%     98.89% # Type of FU issued
system.cpu0.iq.FU_type_0::MemWrite             229156      1.06%     99.94% # Type of FU issued
system.cpu0.iq.FU_type_0::FloatMemRead          11112      0.05%    100.00% # Type of FU issued
system.cpu0.iq.FU_type_0::FloatMemWrite           961      0.00%    100.00% # Type of FU issued
system.cpu0.iq.FU_type_0::IprAccess                 0      0.00%    100.00% # Type of FU issued
system.cpu0.iq.FU_type_0::InstPrefetch              0      0.00%    100.00% # Type of FU issued
system.cpu0.iq.FU_type_0::total              21707783                       # Type of FU issued
system.cpu0.iq.rate                          0.710922                       # Inst issue rate
system.cpu0.iq.fu_busy_cnt                      73504                       # FU busy when requested
system.cpu0.iq.fu_busy_rate                  0.003386                       # FU busy rate (busy events/executed inst)
system.cpu0.iq.int_inst_queue_reads          73897056                       # Number of integer instruction queue reads
system.cpu0.iq.int_inst_queue_writes         48316256                       # Number of integer instruction queue writes
system.cpu0.iq.int_inst_queue_wakeup_accesses     20730641                       # Number of integer instruction queue wakeup accesses
system.cpu0.iq.fp_inst_queue_reads             151407                       # Number of floating instruction queue reads
system.cpu0.iq.fp_inst_queue_writes            140796                       # Number of floating instruction queue writes
system.cpu0.iq.fp_inst_queue_wakeup_accesses        65869                       # Number of floating instruction queue wakeup accesses
system.cpu0.iq.vec_inst_queue_reads                 0                       # Number of vector instruction queue reads
system.cpu0.iq.vec_inst_queue_writes                0                       # Number of vector instruction queue writes
system.cpu0.iq.vec_inst_queue_wakeup_accesses            0                       # Number of vector instruction queue wakeup accesses
system.cpu0.iq.int_alu_accesses              21628155                       # Number of integer alu accesses
system.cpu0.iq.fp_alu_accesses                  77904                       # Number of floating point alu accesses
system.cpu0.iq.vec_alu_accesses                     0                       # Number of vector alu accesses
system.cpu0.iew.lsq.thread0.forwLoads           21783                       # Number of loads that had data forwarded from stores
system.cpu0.iew.lsq.thread0.invAddrLoads            0                       # Number of loads ignored due to an invalid address
system.cpu0.iew.lsq.thread0.squashedLoads      3503073                       # Number of loads squashed
system.cpu0.iew.lsq.thread0.ignoredResponses          625                       # Number of memory responses ignored because the instruction is squashed
system.cpu0.iew.lsq.thread0.memOrderViolation           27                       # Number of memory ordering violations
system.cpu0.iew.lsq.thread0.squashedStores       200440                       # Number of stores squashed
system.cpu0.iew.lsq.thread0.invAddrSwpfs            0                       # Number of software prefetches ignored due to an invalid address
system.cpu0.iew.lsq.thread0.blockedLoads            0                       # Number of blocked loads due to partial load-store forwarding
system.cpu0.iew.lsq.thread0.rescheduledLoads          165                       # Number of loads that were rescheduled
system.cpu0.iew.lsq.thread0.cacheBlocked         8215                       # Number of times an access to memory failed due to the cache being blocked
system.cpu0.iew.iewIdleCycles                       0                       # Number of cycles IEW is idle
system.cpu0.iew.iewSquashCycles                293844                       # Number of cycles IEW is squashing
system.cpu0.iew.iewBlockCycles               14669393                       # Number of cycles IEW is blocking
system.cpu0.iew.iewUnblockCycles               691902                       # Number of cycles IEW is unblocking
system.cpu0.iew.iewDispatchedInsts           30073298                       # Number of instructions dispatched to IQ
system.cpu0.iew.iewDispSquashedInsts            17676                       # Number of squashed instructions skipped by dispatch
system.cpu0.iew.iewDispLoadInsts              5709197                       # Number of dispatched load instructions
system.cpu0.iew.iewDispStoreInsts              319603                       # Number of dispatched store instructions
system.cpu0.iew.iewDispNonSpecInsts              7199                       # Number of dispatched non-speculative instructions
system.cpu0.iew.iewIQFullEvents                 36224                       # Number of times the IQ has become full, causing a stall
system.cpu0.iew.iewLSQFullEvents                49290                       # Number of times the LSQ has become full, causing a stall
system.cpu0.iew.memOrderViolationEvents            27                       # Number of memory order violations
system.cpu0.iew.predictedTakenIncorrect        153200                       # Number of branches that were predicted taken incorrectly
system.cpu0.iew.predictedNotTakenIncorrect       173596                       # Number of branches that were predicted not taken incorrectly
system.cpu0.iew.branchMispredicts              326796                       # Number of branch mispredicts detected at execute
system.cpu0.iew.iewExecutedInsts             21231042                       # Number of executed instructions
system.cpu0.iew.iewExecLoadInsts              3282949                       # Number of load instructions executed
system.cpu0.iew.iewExecSquashedInsts           476741                       # Number of squashed instructions skipped in execute
system.cpu0.iew.exec_swp                            0                       # number of swp insts executed
system.cpu0.iew.exec_nop                            0                       # number of nop insts executed
system.cpu0.iew.exec_refs                     3494999                       # number of memory reference insts executed
system.cpu0.iew.exec_branches                 2599930                       # Number of branches executed
system.cpu0.iew.exec_stores                    212050                       # Number of stores executed
system.cpu0.iew.exec_rate                    0.695309                       # Inst execution rate
system.cpu0.iew.wb_sent                      20872794                       # cumulative count of insts sent to commit
system.cpu0.iew.wb_count                     20796510                       # cumulative count of insts written-back
system.cpu0.iew.wb_producers                 15482828                       # num instructions producing a value
system.cpu0.iew.wb_consumers                 24644819                       # num instructions consuming a value
system.cpu0.iew.wb_rate                      0.681078                       # insts written-back per cycle
system.cpu0.iew.wb_fanout                    0.628239                       # average fanout of values written-back
system.cpu0.commit.commitSquashedInsts       18384865                       # The number of squashed insts skipped by commit
system.cpu0.commit.commitNonSpecStalls              1                       # The number of times commit has been forced to stall to communicate backwards
system.cpu0.commit.branchMispredicts           293829                       # The number of times a branch was mispredicted
system.cpu0.commit.committed_per_cycle::samples     27932382                       # Number of insts commited each cycle
system.cpu0.commit.committed_per_cycle::mean     0.418499                       # Number of insts commited each cycle
system.cpu0.commit.committed_per_cycle::stdev     1.116368                       # Number of insts commited each cycle
system.cpu0.commit.committed_per_cycle::underflows            0      0.00%      0.00% # Number of insts commited each cycle
system.cpu0.commit.committed_per_cycle::0     22793778     81.60%     81.60% # Number of insts commited each cycle
system.cpu0.commit.committed_per_cycle::1      2370265      8.49%     90.09% # Number of insts commited each cycle
system.cpu0.commit.committed_per_cycle::2       571586      2.05%     92.14% # Number of insts commited each cycle
system.cpu0.commit.committed_per_cycle::3      1563685      5.60%     97.73% # Number of insts commited each cycle
system.cpu0.commit.committed_per_cycle::4       267380      0.96%     98.69% # Number of insts commited each cycle
system.cpu0.commit.committed_per_cycle::5       148044      0.53%     99.22% # Number of insts commited each cycle
system.cpu0.commit.committed_per_cycle::6        25561      0.09%     99.31% # Number of insts commited each cycle
system.cpu0.commit.committed_per_cycle::7        14590      0.05%     99.36% # Number of insts commited each cycle
system.cpu0.commit.committed_per_cycle::8       177493      0.64%    100.00% # Number of insts commited each cycle
system.cpu0.commit.committed_per_cycle::overflows            0      0.00%    100.00% # Number of insts commited each cycle
system.cpu0.commit.committed_per_cycle::min_value            0                       # Number of insts commited each cycle
system.cpu0.commit.committed_per_cycle::max_value            8                       # Number of insts commited each cycle
system.cpu0.commit.committed_per_cycle::total     27932382                       # Number of insts commited each cycle
system.cpu0.commit.committedInsts             5850791                       # Number of instructions committed
system.cpu0.commit.committedOps              11689672                       # Number of ops (including micro ops) committed
system.cpu0.commit.swp_count                        0                       # Number of s/w prefetches committed
system.cpu0.commit.refs                       2325309                       # Number of memory references committed
system.cpu0.commit.loads                      2206146                       # Number of loads committed
system.cpu0.commit.membars                          0                       # Number of memory barriers committed
system.cpu0.commit.branches                   2106690                       # Number of branches committed
system.cpu0.commit.vec_insts                        0                       # Number of committed Vector instructions.
system.cpu0.commit.fp_insts                     47724                       # Number of committed floating point instructions.
system.cpu0.commit.int_insts                 11641601                       # Number of committed integer instructions.
system.cpu0.commit.function_calls               21004                       # Number of function calls committed.
system.cpu0.commit.op_class_0::No_OpClass        14242      0.12%      0.12% # Class of committed instruction
system.cpu0.commit.op_class_0::IntAlu         9274217     79.34%     79.46% # Class of committed instruction
system.cpu0.commit.op_class_0::IntMult            840      0.01%     79.47% # Class of committed instruction
system.cpu0.commit.op_class_0::IntDiv           34288      0.29%     79.76% # Class of committed instruction
system.cpu0.commit.op_class_0::FloatAdd         40776      0.35%     80.11% # Class of committed instruction
system.cpu0.commit.op_class_0::FloatCmp             0      0.00%     80.11% # Class of committed instruction
system.cpu0.commit.op_class_0::FloatCvt             0      0.00%     80.11% # Class of committed instruction
system.cpu0.commit.op_class_0::FloatMult            0      0.00%     80.11% # Class of committed instruction
system.cpu0.commit.op_class_0::FloatMultAcc            0      0.00%     80.11% # Class of committed instruction
system.cpu0.commit.op_class_0::FloatDiv             0      0.00%     80.11% # Class of committed instruction
system.cpu0.commit.op_class_0::FloatMisc            0      0.00%     80.11% # Class of committed instruction
system.cpu0.commit.op_class_0::FloatSqrt            0      0.00%     80.11% # Class of committed instruction
system.cpu0.commit.op_class_0::SimdAdd              0      0.00%     80.11% # Class of committed instruction
system.cpu0.commit.op_class_0::SimdAddAcc            0      0.00%     80.11% # Class of committed instruction
system.cpu0.commit.op_class_0::SimdAlu              0      0.00%     80.11% # Class of committed instruction
system.cpu0.commit.op_class_0::SimdCmp              0      0.00%     80.11% # Class of committed instruction
system.cpu0.commit.op_class_0::SimdCvt              0      0.00%     80.11% # Class of committed instruction
system.cpu0.commit.op_class_0::SimdMisc             0      0.00%     80.11% # Class of committed instruction
system.cpu0.commit.op_class_0::SimdMult             0      0.00%     80.11% # Class of committed instruction
system.cpu0.commit.op_class_0::SimdMultAcc            0      0.00%     80.11% # Class of committed instruction
system.cpu0.commit.op_class_0::SimdShift            0      0.00%     80.11% # Class of committed instruction
system.cpu0.commit.op_class_0::SimdShiftAcc            0      0.00%     80.11% # Class of committed instruction
system.cpu0.commit.op_class_0::SimdSqrt             0      0.00%     80.11% # Class of committed instruction
system.cpu0.commit.op_class_0::SimdFloatAdd            0      0.00%     80.11% # Class of committed instruction
system.cpu0.commit.op_class_0::SimdFloatAlu            0      0.00%     80.11% # Class of committed instruction
system.cpu0.commit.op_class_0::SimdFloatCmp            0      0.00%     80.11% # Class of committed instruction
system.cpu0.commit.op_class_0::SimdFloatCvt            0      0.00%     80.11% # Class of committed instruction
system.cpu0.commit.op_class_0::SimdFloatDiv            0      0.00%     80.11% # Class of committed instruction
system.cpu0.commit.op_class_0::SimdFloatMisc            0      0.00%     80.11% # Class of committed instruction
system.cpu0.commit.op_class_0::SimdFloatMult            0      0.00%     80.11% # Class of committed instruction
system.cpu0.commit.op_class_0::SimdFloatMultAcc            0      0.00%     80.11% # Class of committed instruction
system.cpu0.commit.op_class_0::SimdFloatSqrt            0      0.00%     80.11% # Class of committed instruction
system.cpu0.commit.op_class_0::MemRead        2199198     18.81%     98.92% # Class of committed instruction
system.cpu0.commit.op_class_0::MemWrite        119163      1.02%     99.94% # Class of committed instruction
system.cpu0.commit.op_class_0::FloatMemRead         6948      0.06%    100.00% # Class of committed instruction
system.cpu0.commit.op_class_0::FloatMemWrite            0      0.00%    100.00% # Class of committed instruction
system.cpu0.commit.op_class_0::IprAccess            0      0.00%    100.00% # Class of committed instruction
system.cpu0.commit.op_class_0::InstPrefetch            0      0.00%    100.00% # Class of committed instruction
system.cpu0.commit.op_class_0::total         11689672                       # Class of committed instruction
system.cpu0.commit.bw_lim_events               177493                       # number cycles where commit BW limit reached
system.cpu0.rob.rob_reads                    57829426                       # The number of ROB reads
system.cpu0.rob.rob_writes                   62751530                       # The number of ROB writes
system.cpu0.timesIdled                            619                       # Number of times that the entire CPU went into an idle state and unscheduled itself
system.cpu0.idleCycles                           8211                       # Total number of cycles that the CPU has spent unscheduled due to idling
system.cpu0.committedInsts                    5850791                       # Number of Instructions Simulated
system.cpu0.committedOps                     11689672                       # Number of Ops (including micro ops) Simulated
system.cpu0.cpi                              5.218899                       # CPI: Cycles Per Instruction
system.cpu0.cpi_total                        5.218899                       # CPI: Total CPI of All Threads
system.cpu0.ipc                              0.191611                       # IPC: Instructions Per Cycle
system.cpu0.ipc_total                        0.191611                       # IPC: Total IPC of All Threads
system.cpu0.int_regfile_reads                21302895                       # number of integer regfile reads
system.cpu0.int_regfile_writes               18011311                       # number of integer regfile writes
system.cpu0.fp_regfile_reads                   117511                       # number of floating regfile reads
system.cpu0.fp_regfile_writes                   58535                       # number of floating regfile writes
system.cpu0.cc_regfile_reads                 13729630                       # number of cc regfile reads
system.cpu0.cc_regfile_writes                 5830917                       # number of cc regfile writes
system.cpu0.misc_regfile_reads               11243805                       # number of misc regfile reads
system.cpu0.dcache.tags.pwrStateResidencyTicks::UNDEFINED  15267344125                       # Cumulative time (in ticks) in various power states
system.cpu0.dcache.tags.replacements          1170003                       # number of replacements
system.cpu0.dcache.tags.tagsinuse                 512                       # Cycle average of tags in use
system.cpu0.dcache.tags.total_refs            1393530                       # Total number of references to valid blocks.
system.cpu0.dcache.tags.sampled_refs          1170003                       # Sample count of references to valid blocks.
system.cpu0.dcache.tags.avg_refs             1.191048                       # Average number of references to valid blocks.
system.cpu0.dcache.tags.warmup_cycle                0                       # Cycle when the warmup percentage was hit.
system.cpu0.dcache.tags.occ_blocks::cpu0.data          512                       # Average occupied blocks per requestor
system.cpu0.dcache.tags.occ_percent::cpu0.data            1                       # Average percentage of cache occupancy
system.cpu0.dcache.tags.occ_percent::total            1                       # Average percentage of cache occupancy
system.cpu0.dcache.tags.occ_task_id_blocks::1024          512                       # Occupied blocks per task id
system.cpu0.dcache.tags.age_task_id_blocks_1024::0          475                       # Occupied blocks per task id
system.cpu0.dcache.tags.age_task_id_blocks_1024::1           37                       # Occupied blocks per task id
system.cpu0.dcache.tags.occ_task_id_percent::1024            1                       # Percentage of cache occupancy per task id
system.cpu0.dcache.tags.tag_accesses         14608727                       # Number of tag accesses
system.cpu0.dcache.tags.data_accesses        14608727                       # Number of data accesses
system.cpu0.dcache.pwrStateResidencyTicks::UNDEFINED  15267344125                       # Cumulative time (in ticks) in various power states
system.cpu0.dcache.ReadReq_hits::cpu0.data      1281296                       # number of ReadReq hits
system.cpu0.dcache.ReadReq_hits::total        1281296                       # number of ReadReq hits
system.cpu0.dcache.WriteReq_hits::cpu0.data       113861                       # number of WriteReq hits
system.cpu0.dcache.WriteReq_hits::total        113861                       # number of WriteReq hits
system.cpu0.dcache.demand_hits::cpu0.data      1395157                       # number of demand (read+write) hits
system.cpu0.dcache.demand_hits::total         1395157                       # number of demand (read+write) hits
system.cpu0.dcache.overall_hits::cpu0.data      1395157                       # number of overall hits
system.cpu0.dcache.overall_hits::total        1395157                       # number of overall hits
system.cpu0.dcache.ReadReq_misses::cpu0.data      1959222                       # number of ReadReq misses
system.cpu0.dcache.ReadReq_misses::total      1959222                       # number of ReadReq misses
system.cpu0.dcache.WriteReq_misses::cpu0.data         5302                       # number of WriteReq misses
system.cpu0.dcache.WriteReq_misses::total         5302                       # number of WriteReq misses
system.cpu0.dcache.demand_misses::cpu0.data      1964524                       # number of demand (read+write) misses
system.cpu0.dcache.demand_misses::total       1964524                       # number of demand (read+write) misses
system.cpu0.dcache.overall_misses::cpu0.data      1964524                       # number of overall misses
system.cpu0.dcache.overall_misses::total      1964524                       # number of overall misses
system.cpu0.dcache.ReadReq_miss_latency::cpu0.data  28347237000                       # number of ReadReq miss cycles
system.cpu0.dcache.ReadReq_miss_latency::total  28347237000                       # number of ReadReq miss cycles
system.cpu0.dcache.WriteReq_miss_latency::cpu0.data    349185993                       # number of WriteReq miss cycles
system.cpu0.dcache.WriteReq_miss_latency::total    349185993                       # number of WriteReq miss cycles
system.cpu0.dcache.demand_miss_latency::cpu0.data  28696422993                       # number of demand (read+write) miss cycles
system.cpu0.dcache.demand_miss_latency::total  28696422993                       # number of demand (read+write) miss cycles
system.cpu0.dcache.overall_miss_latency::cpu0.data  28696422993                       # number of overall miss cycles
[...]
system.l2.demand_miss_rate::cpu0.data        0.010091                       # miss rate for demand accesses
system.l2.demand_miss_rate::total            0.010093                       # miss rate for demand accesses
system.l2.overall_miss_rate::cpu0.inst       0.058824                       # miss rate for overall accesses
system.l2.overall_miss_rate::cpu0.data       0.010091                       # miss rate for overall accesses
system.l2.overall_miss_rate::total           0.010093                       # miss rate for overall accesses
system.l2.ReadExReq_avg_miss_latency::cpu0.data 252665.936953                       # average ReadExReq miss latency
system.l2.ReadExReq_avg_miss_latency::total 252665.936953                       # average ReadExReq miss latency
system.l2.ReadCleanReq_avg_miss_latency::cpu0.inst       102250                       # average ReadCleanReq miss latency
system.l2.ReadCleanReq_avg_miss_latency::total       102250                       # average ReadCleanReq miss latency
system.l2.ReadSharedReq_avg_miss_latency::cpu0.data 119029.207689                       # average ReadSharedReq miss latency
system.l2.ReadSharedReq_avg_miss_latency::total 119029.207689                       # average ReadSharedReq miss latency
system.l2.demand_avg_miss_latency::cpu0.inst       102250                       # average overall miss latency
system.l2.demand_avg_miss_latency::cpu0.data 131954.857288                       # average overall miss latency
system.l2.demand_avg_miss_latency::total 131949.826404                       # average overall miss latency
system.l2.overall_avg_miss_latency::cpu0.inst       102250                       # average overall miss latency
system.l2.overall_avg_miss_latency::cpu0.data 131954.857288                       # average overall miss latency
system.l2.overall_avg_miss_latency::total 131949.826404                       # average overall miss latency
system.l2.blocked_cycles::no_mshrs                  0                       # number of cycles access was blocked
system.l2.blocked_cycles::no_targets                0                       # number of cycles access was blocked
system.l2.blocked::no_mshrs                         0                       # number of cycles access was blocked
system.l2.blocked::no_targets                       0                       # number of cycles access was blocked
system.l2.avg_blocked_cycles::no_mshrs            nan                       # average number of cycles each access was blocked
system.l2.avg_blocked_cycles::no_targets          nan                       # average number of cycles each access was blocked
system.l2.writebacks::writebacks                 3375                       # number of writebacks
system.l2.writebacks::total                      3375                       # number of writebacks
system.l2.ReadExReq_mshr_misses::cpu0.data         1142                       # number of ReadExReq MSHR misses
system.l2.ReadExReq_mshr_misses::total           1142                       # number of ReadExReq MSHR misses
system.l2.ReadCleanReq_mshr_misses::cpu0.inst            2                       # number of ReadCleanReq MSHR misses
system.l2.ReadCleanReq_mshr_misses::total            2                       # number of ReadCleanReq MSHR misses
system.l2.ReadSharedReq_mshr_misses::cpu0.data        10665                       # number of ReadSharedReq MSHR misses
system.l2.ReadSharedReq_mshr_misses::total        10665                       # number of ReadSharedReq MSHR misses
system.l2.demand_mshr_misses::cpu0.inst             2                       # number of demand (read+write) MSHR misses
system.l2.demand_mshr_misses::cpu0.data         11807                       # number of demand (read+write) MSHR misses
system.l2.demand_mshr_misses::total             11809                       # number of demand (read+write) MSHR misses
system.l2.overall_mshr_misses::cpu0.inst            2                       # number of overall MSHR misses
system.l2.overall_mshr_misses::cpu0.data        11807                       # number of overall MSHR misses
system.l2.overall_mshr_misses::total            11809                       # number of overall MSHR misses
system.l2.ReadExReq_mshr_miss_latency::cpu0.data    277124500                       # number of ReadExReq MSHR miss cycles
system.l2.ReadExReq_mshr_miss_latency::total    277124500                       # number of ReadExReq MSHR miss cycles
system.l2.ReadCleanReq_mshr_miss_latency::cpu0.inst       184500                       # number of ReadCleanReq MSHR miss cycles
system.l2.ReadCleanReq_mshr_miss_latency::total       184500                       # number of ReadCleanReq MSHR miss cycles
system.l2.ReadSharedReq_mshr_miss_latency::cpu0.data   1162796500                       # number of ReadSharedReq MSHR miss cycles
system.l2.ReadSharedReq_mshr_miss_latency::total   1162796500                       # number of ReadSharedReq MSHR miss cycles
system.l2.demand_mshr_miss_latency::cpu0.inst       184500                       # number of demand (read+write) MSHR miss cycles
system.l2.demand_mshr_miss_latency::cpu0.data   1439921000                       # number of demand (read+write) MSHR miss cycles
system.l2.demand_mshr_miss_latency::total   1440105500                       # number of demand (read+write) MSHR miss cycles
system.l2.overall_mshr_miss_latency::cpu0.inst       184500                       # number of overall MSHR miss cycles
system.l2.overall_mshr_miss_latency::cpu0.data   1439921000                       # number of overall MSHR miss cycles
system.l2.overall_mshr_miss_latency::total   1440105500                       # number of overall MSHR miss cycles
system.l2.ReadExReq_mshr_miss_rate::cpu0.data     0.216288                       # mshr miss rate for ReadExReq accesses
system.l2.ReadExReq_mshr_miss_rate::total     0.216288                       # mshr miss rate for ReadExReq accesses
system.l2.ReadCleanReq_mshr_miss_rate::cpu0.inst     0.058824                       # mshr miss rate for ReadCleanReq accesses
system.l2.ReadCleanReq_mshr_miss_rate::total     0.058824                       # mshr miss rate for ReadCleanReq accesses
system.l2.ReadSharedReq_mshr_miss_rate::cpu0.data     0.009157                       # mshr miss rate for ReadSharedReq accesses
system.l2.ReadSharedReq_mshr_miss_rate::total     0.009157                       # mshr miss rate for ReadSharedReq accesses
system.l2.demand_mshr_miss_rate::cpu0.inst     0.058824                       # mshr miss rate for demand accesses
system.l2.demand_mshr_miss_rate::cpu0.data     0.010091                       # mshr miss rate for demand accesses
system.l2.demand_mshr_miss_rate::total       0.010093                       # mshr miss rate for demand accesses
system.l2.overall_mshr_miss_rate::cpu0.inst     0.058824                       # mshr miss rate for overall accesses
system.l2.overall_mshr_miss_rate::cpu0.data     0.010091                       # mshr miss rate for overall accesses
system.l2.overall_mshr_miss_rate::total      0.010093                       # mshr miss rate for overall accesses
system.l2.ReadExReq_avg_mshr_miss_latency::cpu0.data 242665.936953                       # average ReadExReq mshr miss latency
system.l2.ReadExReq_avg_mshr_miss_latency::total 242665.936953                       # average ReadExReq mshr miss latency
system.l2.ReadCleanReq_avg_mshr_miss_latency::cpu0.inst        92250                       # average ReadCleanReq mshr miss latency
system.l2.ReadCleanReq_avg_mshr_miss_latency::total        92250                       # average ReadCleanReq mshr miss latency
system.l2.ReadSharedReq_avg_mshr_miss_latency::cpu0.data 109029.207689                       # average ReadSharedReq mshr miss latency
system.l2.ReadSharedReq_avg_mshr_miss_latency::total 109029.207689                       # average ReadSharedReq mshr miss latency
system.l2.demand_avg_mshr_miss_latency::cpu0.inst        92250                       # average overall mshr miss latency
system.l2.demand_avg_mshr_miss_latency::cpu0.data 121954.857288                       # average overall mshr miss latency
system.l2.demand_avg_mshr_miss_latency::total 121949.826404                       # average overall mshr miss latency
system.l2.overall_avg_mshr_miss_latency::cpu0.inst        92250                       # average overall mshr miss latency
system.l2.overall_avg_mshr_miss_latency::cpu0.data 121954.857288                       # average overall mshr miss latency
system.l2.overall_avg_mshr_miss_latency::total 121949.826404                       # average overall mshr miss latency
system.membus.snoop_filter.tot_requests         23613                       # Total number of requests made to the snoop filter.
system.membus.snoop_filter.hit_single_requests        11807                       # Number of requests hitting in the snoop filter with a single holder of the requested data.
system.membus.snoop_filter.hit_multi_requests            0                       # Number of requests hitting in the snoop filter with multiple (>1) holders of the requested data.
system.membus.snoop_filter.tot_snoops               0                       # Total number of snoops made to the snoop filter.
system.membus.snoop_filter.hit_single_snoops            0                       # Number of snoops hitting in the snoop filter with a single holder of the requested data.
system.membus.snoop_filter.hit_multi_snoops            0                       # Number of snoops hitting in the snoop filter with multiple (>1) holders of the requested data.
system.membus.pwrStateResidencyTicks::UNDEFINED  15267344125                       # Cumulative time (in ticks) in various power states
system.membus.trans_dist::ReadResp              10667                       # Transaction distribution
system.membus.trans_dist::WritebackDirty         3375                       # Transaction distribution
system.membus.trans_dist::CleanEvict             8429                       # Transaction distribution
system.membus.trans_dist::ReadExReq              1142                       # Transaction distribution
system.membus.trans_dist::ReadExResp             1142                       # Transaction distribution
system.membus.trans_dist::ReadSharedReq         10667                       # Transaction distribution
system.membus.pkt_count_system.l2.mem_side::system.mem_ctrls.port        35422                       # Packet count per connected master and slave (bytes)
system.membus.pkt_count_system.l2.mem_side::total        35422                       # Packet count per connected master and slave (bytes)
system.membus.pkt_count::total                  35422                       # Packet count per connected master and slave (bytes)
system.membus.pkt_size_system.l2.mem_side::system.mem_ctrls.port       971776                       # Cumulative packet size per connected master and slave (bytes)
system.membus.pkt_size_system.l2.mem_side::total       971776                       # Cumulative packet size per connected master and slave (bytes)
system.membus.pkt_size::total                  971776                       # Cumulative packet size per connected master and slave (bytes)
system.membus.snoops                                0                       # Total snoops (count)
system.membus.snoopTraffic                          0                       # Total snoop traffic (bytes)
system.membus.snoop_fanout::samples             11809                       # Request fanout histogram
system.membus.snoop_fanout::mean                    0                       # Request fanout histogram
system.membus.snoop_fanout::stdev                   0                       # Request fanout histogram
system.membus.snoop_fanout::underflows              0      0.00%      0.00% # Request fanout histogram
system.membus.snoop_fanout::0                   11809    100.00%    100.00% # Request fanout histogram
system.membus.snoop_fanout::1                       0      0.00%    100.00% # Request fanout histogram
system.membus.snoop_fanout::overflows               0      0.00%    100.00% # Request fanout histogram
system.membus.snoop_fanout::min_value               0                       # Request fanout histogram
system.membus.snoop_fanout::max_value               0                       # Request fanout histogram
system.membus.snoop_fanout::total               11809                       # Request fanout histogram
system.membus.reqLayer12.occupancy           40219500                       # Layer occupancy (ticks)
system.membus.reqLayer12.utilization              0.3                       # Layer utilization (%)
system.membus.respLayer1.occupancy           64710250                       # Layer occupancy (ticks)
system.membus.respLayer1.utilization              0.4                       # Layer utilization (%)
system.tol2bus.snoop_filter.tot_requests      2340075                       # Total number of requests made to the snoop filter.
system.tol2bus.snoop_filter.hit_single_requests      1170040                       # Number of requests hitting in the snoop filter with a single holder of the requested data.
system.tol2bus.snoop_filter.hit_multi_requests         2673                       # Number of requests hitting in the snoop filter with multiple (>1) holders of the requested data.
system.tol2bus.snoop_filter.tot_snoops             11                       # Total number of snoops made to the snoop filter.
system.tol2bus.snoop_filter.hit_single_snoops           11                       # Number of snoops hitting in the snoop filter with a single holder of the requested data.
system.tol2bus.snoop_filter.hit_multi_snoops            0                       # Number of snoops hitting in the snoop filter with multiple (>1) holders of the requested data.
system.tol2bus.pwrStateResidencyTicks::UNDEFINED  15267344125                       # Cumulative time (in ticks) in various power states
system.tol2bus.trans_dist::ReadResp           1164757                       # Transaction distribution
system.tol2bus.trans_dist::WritebackDirty       857265                       # Transaction distribution
system.tol2bus.trans_dist::WritebackClean           34                       # Transaction distribution
system.tol2bus.trans_dist::CleanEvict          324554                       # Transaction distribution
system.tol2bus.trans_dist::ReadExReq             5280                       # Transaction distribution
system.tol2bus.trans_dist::ReadExResp            5280                       # Transaction distribution
system.tol2bus.trans_dist::ReadCleanReq            34                       # Transaction distribution
system.tol2bus.trans_dist::ReadSharedReq      1164723                       # Transaction distribution
system.tol2bus.pkt_count_system.cpu0.icache.mem_side::system.l2.cpu_side          102                       # Packet count per connected master and slave (bytes)
system.tol2bus.pkt_count_system.cpu0.dcache.mem_side::system.l2.cpu_side      3510010                       # Packet count per connected master and slave (bytes)
system.tol2bus.pkt_count::total               3510112                       # Packet count per connected master and slave (bytes)
system.tol2bus.pkt_size_system.cpu0.icache.mem_side::system.l2.cpu_side         4352                       # Cumulative packet size per connected master and slave (bytes)
system.tol2bus.pkt_size_system.cpu0.dcache.mem_side::system.l2.cpu_side    129529152                       # Cumulative packet size per connected master and slave (bytes)
system.tol2bus.pkt_size::total              129533504                       # Cumulative packet size per connected master and slave (bytes)
system.tol2bus.snoops                           11815                       # Total snoops (count)
system.tol2bus.snoopTraffic                    216000                       # Total snoop traffic (bytes)
system.tol2bus.snoop_fanout::samples          1181852                       # Request fanout histogram
system.tol2bus.snoop_fanout::mean            0.002273                       # Request fanout histogram
system.tol2bus.snoop_fanout::stdev           0.047619                       # Request fanout histogram
system.tol2bus.snoop_fanout::underflows             0      0.00%      0.00% # Request fanout histogram
system.tol2bus.snoop_fanout::0                1179166     99.77%     99.77% # Request fanout histogram
system.tol2bus.snoop_fanout::1                   2686      0.23%    100.00% # Request fanout histogram
system.tol2bus.snoop_fanout::2                      0      0.00%    100.00% # Request fanout histogram
system.tol2bus.snoop_fanout::3                      0      0.00%    100.00% # Request fanout histogram
system.tol2bus.snoop_fanout::4                      0      0.00%    100.00% # Request fanout histogram
system.tol2bus.snoop_fanout::5                      0      0.00%    100.00% # Request fanout histogram
system.tol2bus.snoop_fanout::6                      0      0.00%    100.00% # Request fanout histogram
system.tol2bus.snoop_fanout::7                      0      0.00%    100.00% # Request fanout histogram
system.tol2bus.snoop_fanout::8                      0      0.00%    100.00% # Request fanout histogram
system.tol2bus.snoop_fanout::9                      0      0.00%    100.00% # Request fanout histogram
system.tol2bus.snoop_fanout::10                     0      0.00%    100.00% # Request fanout histogram
system.tol2bus.snoop_fanout::11                     0      0.00%    100.00% # Request fanout histogram
system.tol2bus.snoop_fanout::12                     0      0.00%    100.00% # Request fanout histogram
system.tol2bus.snoop_fanout::13                     0      0.00%    100.00% # Request fanout histogram
system.tol2bus.snoop_fanout::14                     0      0.00%    100.00% # Request fanout histogram
system.tol2bus.snoop_fanout::15                     0      0.00%    100.00% # Request fanout histogram
system.tol2bus.snoop_fanout::16                     0      0.00%    100.00% # Request fanout histogram
system.tol2bus.snoop_fanout::17                     0      0.00%    100.00% # Request fanout histogram
system.tol2bus.snoop_fanout::18                     0      0.00%    100.00% # Request fanout histogram
system.tol2bus.snoop_fanout::19                     0      0.00%    100.00% # Request fanout histogram
system.tol2bus.snoop_fanout::20                     0      0.00%    100.00% # Request fanout histogram
system.tol2bus.snoop_fanout::21                     0      0.00%    100.00% # Request fanout histogram
system.tol2bus.snoop_fanout::22                     0      0.00%    100.00% # Request fanout histogram
system.tol2bus.snoop_fanout::23                     0      0.00%    100.00% # Request fanout histogram
system.tol2bus.snoop_fanout::24                     0      0.00%    100.00% # Request fanout histogram
system.tol2bus.snoop_fanout::overflows              0      0.00%    100.00% # Request fanout histogram
system.tol2bus.snoop_fanout::min_value              0                       # Request fanout histogram
system.tol2bus.snoop_fanout::max_value              1                       # Request fanout histogram
system.tol2bus.snoop_fanout::total            1181852                       # Request fanout histogram
system.tol2bus.reqLayer0.occupancy         2023961500                       # Layer occupancy (ticks)
system.tol2bus.reqLayer0.utilization             13.3                       # Layer utilization (%)
system.tol2bus.respLayer0.occupancy             51499                       # Layer occupancy (ticks)
system.tol2bus.respLayer0.utilization             0.0                       # Layer utilization (%)
system.tol2bus.respLayer1.occupancy        1755004500                       # Layer occupancy (ticks)
system.tol2bus.respLayer1.utilization            11.5                       # Layer utilization (%)

---------- End Simulation Statistics   ----------
