
---------- Begin Simulation Statistics ----------
sim_seconds                                  0.015267                       # Number of seconds simulated
sim_ticks                                 15267344125                       # Number of ticks simulated
final_tick                               2931330072000                       # Number of ticks from beginning of simulation (restored from checkpoints and never reset)
sim_freq                                 1000000000000                       # Frequency of simulated ticks
host_inst_rate                               31603857                       # Simulator instruction rate (inst/s)
host_op_rate                                 58591336                       # Simulator op (including micro ops) rate (op/s)
host_tick_rate                               85921622                       # Simulator tick rate (ticks/s)
host_mem_usage                                3428952                       # Number of bytes of host memory used
host_seconds                                   177.69                       # Real time elapsed on the host
sim_insts                                  5615662822                       # Number of instructions simulated
sim_ops                                   10411046456                       # Number of ops (including micro ops) simulated
system.voltage_domain.voltage                       1                       # Voltage in Volts
system.clk_domain.clock                          1000                       # Clock period in ticks
system.mem_ctrls.pwrStateResidencyTicks::UNDEFINED  15267344125                       # Cumulative time (in ticks) in various power states
system.mem_ctrls.bytes_read::cpu0.data         243968                       # Number of bytes read from this memory
system.mem_ctrls.bytes_read::total             243968                       # Number of bytes read from this memory
system.mem_ctrls.bytes_written::writebacks        57344                       # Number of bytes written to this memory
system.mem_ctrls.bytes_written::total           57344                       # Number of bytes written to this memory
system.mem_ctrls.num_reads::cpu0.data            3812                       # Number of read requests responded to by this memory
system.mem_ctrls.num_reads::total                3812                       # Number of read requests responded to by this memory
system.mem_ctrls.num_writes::writebacks           896                       # Number of write requests responded to by this memory
system.mem_ctrls.num_writes::total                896                       # Number of write requests responded to by this memory
system.mem_ctrls.bw_read::cpu0.data          15979728                       # Total read bandwidth from this memory (bytes/s)
system.mem_ctrls.bw_read::total              15979728                       # Total read bandwidth from this memory (bytes/s)
system.mem_ctrls.bw_write::writebacks         3755991                       # Write bandwidth from this memory (bytes/s)
system.mem_ctrls.bw_write::total              3755991                       # Write bandwidth from this memory (bytes/s)
system.mem_ctrls.bw_total::writebacks         3755991                       # Total bandwidth to/from this memory (bytes/s)
system.mem_ctrls.bw_total::cpu0.data         15979728                       # Total bandwidth to/from this memory (bytes/s)
system.mem_ctrls.bw_total::total             19735718                       # Total bandwidth to/from this memory (bytes/s)
system.mem_ctrls.readReqs                        3812                       # Number of read requests accepted
system.mem_ctrls.writeReqs                        896                       # Number of write requests accepted
system.mem_ctrls.readBursts                      3812                       # Number of DRAM read bursts, including those serviced by the write queue
system.mem_ctrls.writeBursts                      896                       # Number of DRAM write bursts, including those merged in the write queue
system.mem_ctrls.bytesReadDRAM                 243968                       # Total number of bytes read from DRAM
system.mem_ctrls.bytesReadWrQ                       0                       # Total number of bytes read from write queue
system.mem_ctrls.bytesWritten                   57792                       # Total number of bytes written to DRAM
system.mem_ctrls.bytesReadSys                  243968                       # Total read bytes from the system interface side
system.mem_ctrls.bytesWrittenSys                57344                       # Total written bytes from the system interface side
system.mem_ctrls.servicedByWrQ                      0                       # Number of DRAM read bursts serviced by the write queue
system.mem_ctrls.mergedWrBursts                     0                       # Number of DRAM write bursts merged with an existing one
system.mem_ctrls.neitherReadNorWriteReqs            0                       # Number of requests that are neither read nor write
system.mem_ctrls.perBankRdBursts::0               130                       # Per bank write bursts
system.mem_ctrls.perBankRdBursts::1               255                       # Per bank write bursts
system.mem_ctrls.perBankRdBursts::2               267                       # Per bank write bursts
system.mem_ctrls.perBankRdBursts::3               247                       # Per bank write bursts
system.mem_ctrls.perBankRdBursts::4               269                       # Per bank write bursts
system.mem_ctrls.perBankRdBursts::5               353                       # Per bank write bursts
system.mem_ctrls.perBankRdBursts::6               365                       # Per bank write bursts
system.mem_ctrls.perBankRdBursts::7               315                       # Per bank write bursts
system.mem_ctrls.perBankRdBursts::8               240                       # Per bank write bursts
system.mem_ctrls.perBankRdBursts::9               128                       # Per bank write bursts
system.mem_ctrls.perBankRdBursts::10              129                       # Per bank write bursts
system.mem_ctrls.perBankRdBursts::11              128                       # Per bank write bursts
system.mem_ctrls.perBankRdBursts::12              195                       # Per bank write bursts
system.mem_ctrls.perBankRdBursts::13              338                       # Per bank write bursts
system.mem_ctrls.perBankRdBursts::14              316                       # Per bank write bursts
system.mem_ctrls.perBankRdBursts::15              137                       # Per bank write bursts
system.mem_ctrls.perBankWrBursts::0                97                       # Per bank write bursts
system.mem_ctrls.perBankWrBursts::1               116                       # Per bank write bursts
system.mem_ctrls.perBankWrBursts::2               108                       # Per bank write bursts
system.mem_ctrls.perBankWrBursts::3               102                       # Per bank write bursts
system.mem_ctrls.perBankWrBursts::4                29                       # Per bank write bursts
system.mem_ctrls.perBankWrBursts::5                40                       # Per bank write bursts
system.mem_ctrls.perBankWrBursts::6                 6                       # Per bank write bursts
system.mem_ctrls.perBankWrBursts::7                 6                       # Per bank write bursts
system.mem_ctrls.perBankWrBursts::8                 0                       # Per bank write bursts
system.mem_ctrls.perBankWrBursts::9                 0                       # Per bank write bursts
system.mem_ctrls.perBankWrBursts::10                0                       # Per bank write bursts
system.mem_ctrls.perBankWrBursts::11                0                       # Per bank write bursts
system.mem_ctrls.perBankWrBursts::12               88                       # Per bank write bursts
system.mem_ctrls.perBankWrBursts::13              107                       # Per bank write bursts
system.mem_ctrls.perBankWrBursts::14              100                       # Per bank write bursts
system.mem_ctrls.perBankWrBursts::15              104                       # Per bank write bursts
system.mem_ctrls.numRdRetry                         0                       # Number of times read queue was full causing retry
system.mem_ctrls.numWrRetry                         0                       # Number of times write queue was full causing retry
system.mem_ctrls.totGap                   15260860000                       # Total gap between requests
system.mem_ctrls.readPktSize::0                     0                       # Read request sizes (log2)
system.mem_ctrls.readPktSize::1                     0                       # Read request sizes (log2)
system.mem_ctrls.readPktSize::2                     0                       # Read request sizes (log2)
system.mem_ctrls.readPktSize::3                     0                       # Read request sizes (log2)
system.mem_ctrls.readPktSize::4                     0                       # Read request sizes (log2)
system.mem_ctrls.readPktSize::5                     0                       # Read request sizes (log2)
system.mem_ctrls.readPktSize::6                  3812                       # Read request sizes (log2)
system.mem_ctrls.writePktSize::0                    0                       # Write request sizes (log2)
system.mem_ctrls.writePktSize::1                    0                       # Write request sizes (log2)
system.mem_ctrls.writePktSize::2                    0                       # Write request sizes (log2)
system.mem_ctrls.writePktSize::3                    0                       # Write request sizes (log2)
system.mem_ctrls.writePktSize::4                    0                       # Write request sizes (log2)
system.mem_ctrls.writePktSize::5                    0                       # Write request sizes (log2)
system.mem_ctrls.writePktSize::6                  896                       # Write request sizes (log2)
system.mem_ctrls.rdQLenPdf::0                    3528                       # What read queue length does an incoming req see
system.mem_ctrls.rdQLenPdf::1                     256                       # What read queue length does an incoming req see
system.mem_ctrls.rdQLenPdf::2                      28                       # What read queue length does an incoming req see
system.mem_ctrls.rdQLenPdf::3                       0                       # What read queue length does an incoming req see
system.mem_ctrls.rdQLenPdf::4                       0                       # What read queue length does an incoming req see
system.mem_ctrls.rdQLenPdf::5                       0                       # What read queue length does an incoming req see
system.mem_ctrls.rdQLenPdf::6                       0                       # What read queue length does an incoming req see
system.mem_ctrls.rdQLenPdf::7                       0                       # What read queue length does an incoming req see
system.mem_ctrls.rdQLenPdf::8                       0                       # What read queue length does an incoming req see
system.mem_ctrls.rdQLenPdf::9                       0                       # What read queue length does an incoming req see
system.mem_ctrls.rdQLenPdf::10                      0                       # What read queue length does an incoming req see
system.mem_ctrls.rdQLenPdf::11                      0                       # What read queue length does an incoming req see
system.mem_ctrls.rdQLenPdf::12                      0                       # What read queue length does an incoming req see
system.mem_ctrls.rdQLenPdf::13                      0                       # What read queue length does an incoming req see
system.mem_ctrls.rdQLenPdf::14                      0                       # What read queue length does an incoming req see
system.mem_ctrls.rdQLenPdf::15                      0                       # What read queue length does an incoming req see
system.mem_ctrls.rdQLenPdf::16                      0                       # What read queue length does an incoming req see
system.mem_ctrls.rdQLenPdf::17                      0                       # What read queue length does an incoming req see
system.mem_ctrls.rdQLenPdf::18                      0                       # What read queue length does an incoming req see
system.mem_ctrls.rdQLenPdf::19                      0                       # What read queue length does an incoming req see
system.mem_ctrls.rdQLenPdf::20                      0                       # What read queue length does an incoming req see
system.mem_ctrls.rdQLenPdf::21                      0                       # What read queue length does an incoming req see
system.mem_ctrls.rdQLenPdf::22                      0                       # What read queue length does an incoming req see
system.mem_ctrls.rdQLenPdf::23                      0                       # What read queue length does an incoming req see
system.mem_ctrls.rdQLenPdf::24                      0                       # What read queue length does an incoming req see
system.mem_ctrls.rdQLenPdf::25                      0                       # What read queue length does an incoming req see
system.mem_ctrls.rdQLenPdf::26                      0                       # What read queue length does an incoming req see
system.mem_ctrls.rdQLenPdf::27                      0                       # What read queue length does an incoming req see
system.mem_ctrls.rdQLenPdf::28                      0                       # What read queue length does an incoming req see
system.mem_ctrls.rdQLenPdf::29                      0                       # What read queue length does an incoming req see
system.mem_ctrls.rdQLenPdf::30                      0                       # What read queue length does an incoming req see
system.mem_ctrls.rdQLenPdf::31                      0                       # What read queue length does an incoming req see
system.mem_ctrls.wrQLenPdf::0                       0                       # What write queue length does an incoming req see
system.mem_ctrls.wrQLenPdf::1                       0                       # What write queue length does an incoming req see
system.mem_ctrls.wrQLenPdf::2                       0                       # What write queue length does an incoming req see
system.mem_ctrls.wrQLenPdf::3                       0                       # What write queue length does an incoming req see
system.mem_ctrls.wrQLenPdf::4                       0                       # What write queue length does an incoming req see
system.mem_ctrls.wrQLenPdf::5                       0                       # What write queue length does an incoming req see
system.mem_ctrls.wrQLenPdf::6                       0                       # What write queue length does an incoming req see
system.mem_ctrls.wrQLenPdf::7                       0                       # What write queue length does an incoming req see
system.mem_ctrls.wrQLenPdf::8                       0                       # What write queue length does an incoming req see
system.mem_ctrls.wrQLenPdf::9                       0                       # What write queue length does an incoming req see
system.mem_ctrls.wrQLenPdf::10                      0                       # What write queue length does an incoming req see
system.mem_ctrls.wrQLenPdf::11                      0                       # What write queue length does an incoming req see
system.mem_ctrls.wrQLenPdf::12                      0                       # What write queue length does an incoming req see
system.mem_ctrls.wrQLenPdf::13                      0                       # What write queue length does an incoming req see
system.mem_ctrls.wrQLenPdf::14                      0                       # What write queue length does an incoming req see
system.mem_ctrls.wrQLenPdf::15                     34                       # What write queue length does an incoming req see
system.mem_ctrls.wrQLenPdf::16                     36                       # What write queue length does an incoming req see
system.mem_ctrls.wrQLenPdf::17                     52                       # What write queue length does an incoming req see
system.mem_ctrls.wrQLenPdf::18                     52                       # What write queue length does an incoming req see
system.mem_ctrls.wrQLenPdf::19                     52                       # What write queue length does an incoming req see
system.mem_ctrls.wrQLenPdf::20                     52                       # What write queue length does an incoming req see
system.mem_ctrls.wrQLenPdf::21                     52                       # What write queue length does an incoming req see
system.mem_ctrls.wrQLenPdf::22                     52                       # What write queue length does an incoming req see
system.mem_ctrls.wrQLenPdf::23                     52                       # What write queue length does an incoming req see
system.mem_ctrls.wrQLenPdf::24                     51                       # What write queue length does an incoming req see
system.mem_ctrls.wrQLenPdf::25                     51                       # What write queue length does an incoming req see
system.mem_ctrls.wrQLenPdf::26                     51                       # What write queue length does an incoming req see
system.mem_ctrls.wrQLenPdf::27                     51                       # What write queue length does an incoming req see
system.mem_ctrls.wrQLenPdf::28                     51                       # What write queue length does an incoming req see
system.mem_ctrls.wrQLenPdf::29                     51                       # What write queue length does an incoming req see
system.mem_ctrls.wrQLenPdf::30                     52                       # What write queue length does an incoming req see
system.mem_ctrls.wrQLenPdf::31                     52                       # What write queue length does an incoming req see
system.mem_ctrls.wrQLenPdf::32                     52                       # What write queue length does an incoming req see
system.mem_ctrls.wrQLenPdf::33                      0                       # What write queue length does an incoming req see
system.mem_ctrls.wrQLenPdf::34                      0                       # What write queue length does an incoming req see
system.mem_ctrls.wrQLenPdf::35                      0                       # What write queue length does an incoming req see
system.mem_ctrls.wrQLenPdf::36                      0                       # What write queue length does an incoming req see
system.mem_ctrls.wrQLenPdf::37                      0                       # What write queue length does an incoming req see
system.mem_ctrls.wrQLenPdf::38                      0                       # What write queue length does an incoming req see
system.mem_ctrls.wrQLenPdf::39                      0                       # What write queue length does an incoming req see
system.mem_ctrls.wrQLenPdf::40                      0                       # What write queue length does an incoming req see
system.mem_ctrls.wrQLenPdf::41                      0                       # What write queue length does an incoming req see
system.mem_ctrls.wrQLenPdf::42                      0                       # What write queue length does an incoming req see
system.mem_ctrls.wrQLenPdf::43                      0                       # What write queue length does an incoming req see
system.mem_ctrls.wrQLenPdf::44                      0                       # What write queue length does an incoming req see
system.mem_ctrls.wrQLenPdf::45                      0                       # What write queue length does an incoming req see
system.mem_ctrls.wrQLenPdf::46                      0                       # What write queue length does an incoming req see
system.mem_ctrls.wrQLenPdf::47                      0                       # What write queue length does an incoming req see
system.mem_ctrls.wrQLenPdf::48                      0                       # What write queue length does an incoming req see
system.mem_ctrls.wrQLenPdf::49                      0                       # What write queue length does an incoming req see
system.mem_ctrls.wrQLenPdf::50                      0                       # What write queue length does an incoming req see
system.mem_ctrls.wrQLenPdf::51                      0                       # What write queue length does an incoming req see
system.mem_ctrls.wrQLenPdf::52                      0                       # What write queue length does an incoming req see
system.mem_ctrls.wrQLenPdf::53                      0                       # What write queue length does an incoming req see
system.mem_ctrls.wrQLenPdf::54                      0                       # What write queue length does an incoming req see
system.mem_ctrls.wrQLenPdf::55                      0                       # What write queue length does an incoming req see
system.mem_ctrls.wrQLenPdf::56                      0                       # What write queue length does an incoming req see
system.mem_ctrls.wrQLenPdf::57                      0                       # What write queue length does an incoming req see
system.mem_ctrls.wrQLenPdf::58                      0                       # What write queue length does an incoming req see
system.mem_ctrls.wrQLenPdf::59                      0                       # What write queue length does an incoming req see
system.mem_ctrls.wrQLenPdf::60                      0                       # What write queue length does an incoming req see
system.mem_ctrls.wrQLenPdf::61                      0                       # What write queue length does an incoming req see
system.mem_ctrls.wrQLenPdf::62                      0                       # What write queue length does an incoming req see
system.mem_ctrls.wrQLenPdf::63                      0                       # What write queue length does an incoming req see
system.mem_ctrls.bytesPerActivate::samples         3369                       # Bytes accessed per row activation
system.mem_ctrls.bytesPerActivate::mean     89.626595                       # Bytes accessed per row activation
system.mem_ctrls.bytesPerActivate::gmean    75.413465                       # Bytes accessed per row activation
system.mem_ctrls.bytesPerActivate::stdev   112.727003                       # Bytes accessed per row activation
system.mem_ctrls.bytesPerActivate::0-127         2759     81.89%     81.89% # Bytes accessed per row activation
system.mem_ctrls.bytesPerActivate::128-255          550     16.33%     98.22% # Bytes accessed per row activation
system.mem_ctrls.bytesPerActivate::256-383            5      0.15%     98.37% # Bytes accessed per row activation
system.mem_ctrls.bytesPerActivate::384-511            3      0.09%     98.46% # Bytes accessed per row activation
system.mem_ctrls.bytesPerActivate::512-639            3      0.09%     98.55% # Bytes accessed per row activation
system.mem_ctrls.bytesPerActivate::640-767            2      0.06%     98.60% # Bytes accessed per row activation
system.mem_ctrls.bytesPerActivate::768-895            4      0.12%     98.72% # Bytes accessed per row activation
system.mem_ctrls.bytesPerActivate::896-1023           12      0.36%     99.08% # Bytes accessed per row activation
system.mem_ctrls.bytesPerActivate::1024-1151           31      0.92%    100.00% # Bytes accessed per row activation
system.mem_ctrls.bytesPerActivate::total         3369                       # Bytes accessed per row activation
system.mem_ctrls.rdPerTurnAround::samples           52                       # Reads before turning the bus around for writes
system.mem_ctrls.rdPerTurnAround::mean      69.634615                       # Reads before turning the bus around for writes
system.mem_ctrls.rdPerTurnAround::gmean     54.444725                       # Reads before turning the bus around for writes
system.mem_ctrls.rdPerTurnAround::stdev     86.410336                       # Reads before turning the bus around for writes
system.mem_ctrls.rdPerTurnAround::32-47            25     48.08%     48.08% # Reads before turning the bus around for writes
system.mem_ctrls.rdPerTurnAround::48-63            23     44.23%     92.31% # Reads before turning the bus around for writes
system.mem_ctrls.rdPerTurnAround::112-127            1      1.92%     94.23% # Reads before turning the bus around for writes
system.mem_ctrls.rdPerTurnAround::336-351            1      1.92%     96.15% # Reads before turning the bus around for writes
system.mem_ctrls.rdPerTurnAround::368-383            1      1.92%     98.08% # Reads before turning the bus around for writes
system.mem_ctrls.rdPerTurnAround::496-511            1      1.92%    100.00% # Reads before turning the bus around for writes
system.mem_ctrls.rdPerTurnAround::total            52                       # Reads before turning the bus around for writes
system.mem_ctrls.wrPerTurnAround::samples           52                       # Writes before turning the bus around for reads
system.mem_ctrls.wrPerTurnAround::mean      17.365385                       # Writes before turning the bus around for reads
system.mem_ctrls.wrPerTurnAround::gmean     17.339241                       # Writes before turning the bus around for reads
system.mem_ctrls.wrPerTurnAround::stdev      0.950312                       # Writes before turning the bus around for reads
system.mem_ctrls.wrPerTurnAround::16               16     30.77%     30.77% # Writes before turning the bus around for reads
system.mem_ctrls.wrPerTurnAround::17                2      3.85%     34.62% # Writes before turning the bus around for reads
system.mem_ctrls.wrPerTurnAround::18               33     63.46%     98.08% # Writes before turning the bus around for reads
system.mem_ctrls.wrPerTurnAround::19                1      1.92%    100.00% # Writes before turning the bus around for reads
system.mem_ctrls.wrPerTurnAround::total            52                       # Writes before turning the bus around for reads
system.mem_ctrls.totQLat                    500383750                       # Total ticks spent queuing
system.mem_ctrls.totMemAccLat               571858750                       # Total ticks spent from burst creation until serviced by the DRAM
system.mem_ctrls.totBusLat                   19060000                       # Total ticks spent in databus transfers
system.mem_ctrls.avgQLat                    131265.41                       # Average queueing delay per DRAM burst
system.mem_ctrls.avgBusLat                    5000.00                       # Average bus latency per DRAM burst
system.mem_ctrls.avgMemAccLat               150015.41                       # Average memory access latency per DRAM burst
system.mem_ctrls.avgRdBW                        15.98                       # Average DRAM read bandwidth in MiByte/s
system.mem_ctrls.avgWrBW                         3.79                       # Average achieved write bandwidth in MiByte/s
system.mem_ctrls.avgRdBWSys                     15.98                       # Average system read bandwidth in MiByte/s
system.mem_ctrls.avgWrBWSys                      3.76                       # Average system write bandwidth in MiByte/s
system.mem_ctrls.peakBW                      12800.00                       # Theoretical peak bandwidth in MiByte/s
system.mem_ctrls.busUtil                         0.15                       # Data bus utilization in percentage
system.mem_ctrls.busUtilRead                     0.12                       # Data bus utilization in percentage for reads
system.mem_ctrls.busUtilWrite                    0.03                       # Data bus utilization in percentage for writes
system.mem_ctrls.avgRdQLen                       1.11                       # Average read queue length when enqueuing
system.mem_ctrls.avgWrQLen                      24.70                       # Average write queue length when enqueuing
system.mem_ctrls.readRowHits                      570                       # Number of row buffer hits during reads
system.mem_ctrls.writeRowHits                     778                       # Number of row buffer hits during writes
system.mem_ctrls.readRowHitRate                 14.95                       # Row buffer hit rate for reads
system.mem_ctrls.writeRowHitRate                86.83                       # Row buffer hit rate for writes
system.mem_ctrls.avgGap                    3241474.09                       # Average gap between requests
system.mem_ctrls.pageHitRate                    28.63                       # Row buffer hit rate, read and write combined
system.mem_ctrls_0.actEnergy                 14115780                       # Energy for activate commands per rank (pJ)
system.mem_ctrls_0.preEnergy                  7506510                       # Energy for precharge commands per rank (pJ)
system.mem_ctrls_0.readEnergy                15715140                       # Energy for read commands per rank (pJ)
system.mem_ctrls_0.writeEnergy                2630880                       # Energy for write commands per rank (pJ)
system.mem_ctrls_0.refreshEnergy         1273534080.000000                       # Energy for refresh commands per rank (pJ)
system.mem_ctrls_0.actBackEnergy            325692300                       # Energy for active background per rank (pJ)
system.mem_ctrls_0.preBackEnergy             60122400                       # Energy for precharge background per rank (pJ)
system.mem_ctrls_0.actPowerDownEnergy      2554341000                       # Energy for active power-down per rank (pJ)
system.mem_ctrls_0.prePowerDownEnergy      2614984320                       # Energy for precharge power-down per rank (pJ)
system.mem_ctrls_0.selfRefreshEnergy        693444120                       # Energy for self refresh per rank (pJ)
system.mem_ctrls_0.totalEnergy             7563526650                       # Total energy per rank (pJ)
system.mem_ctrls_0.averagePower            495.405526                       # Core power per rank (mW)
system.mem_ctrls_0.totalIdleTime          14358921875                       # Total Idle time Per DRAM Rank
system.mem_ctrls_0.memoryStateTime::IDLE    110994000                       # Time in different power states
system.mem_ctrls_0.memoryStateTime::REF     541276000                       # Time in different power states
system.mem_ctrls_0.memoryStateTime::SREF   1981858000                       # Time in different power states
system.mem_ctrls_0.memoryStateTime::PRE_PDN   6809891750                       # Time in different power states
system.mem_ctrls_0.memoryStateTime::ACT     221690750                       # Time in different power states
system.mem_ctrls_0.memoryStateTime::ACT_PDN   5601633625                       # Time in different power states
system.mem_ctrls_1.actEnergy                  9924600                       # Energy for activate commands per rank (pJ)
system.mem_ctrls_1.preEnergy                  5278845                       # Energy for precharge commands per rank (pJ)
system.mem_ctrls_1.readEnergy                11502540                       # Energy for read commands per rank (pJ)
system.mem_ctrls_1.writeEnergy                2082780                       # Energy for write commands per rank (pJ)
system.mem_ctrls_1.refreshEnergy         1176420960.000000                       # Energy for refresh commands per rank (pJ)
system.mem_ctrls_1.actBackEnergy            273094980                       # Energy for active background per rank (pJ)
system.mem_ctrls_1.preBackEnergy             57291840                       # Energy for precharge background per rank (pJ)
system.mem_ctrls_1.actPowerDownEnergy      2333334330                       # Energy for active power-down per rank (pJ)
system.mem_ctrls_1.prePowerDownEnergy      2404341600                       # Energy for precharge power-down per rank (pJ)
system.mem_ctrls_1.selfRefreshEnergy        965344620                       # Energy for self refresh per rank (pJ)
system.mem_ctrls_1.totalEnergy             7240136295                       # Total energy per rank (pJ)
system.mem_ctrls_1.averagePower            474.223692                       # Core power per rank (mW)
system.mem_ctrls_1.totalIdleTime          14511855875                       # Total Idle time Per DRAM Rank
system.mem_ctrls_1.memoryStateTime::IDLE    107850000                       # Time in different power states
system.mem_ctrls_1.memoryStateTime::REF     500130000                       # Time in different power states
system.mem_ctrls_1.memoryStateTime::SREF   3137602500                       # Time in different power states
system.mem_ctrls_1.memoryStateTime::PRE_PDN   6261288250                       # Time in different power states
system.mem_ctrls_1.memoryStateTime::ACT     143494750                       # Time in different power states
system.mem_ctrls_1.memoryStateTime::ACT_PDN   5116978625                       # Time in different power states
system.pwrStateResidencyTicks::UNDEFINED  15267344125                       # Cumulative time (in ticks) in various power states
system.cpu0.branchPred.lookups                7189453                       # Number of BP lookups
system.cpu0.branchPred.condPredicted          7189453                       # Number of conditional branches predicted
system.cpu0.branchPred.condIncorrect           322734                       # Number of conditional branches incorrect
system.cpu0.branchPred.BTBLookups             5364854                       # Number of BTB lookups
system.cpu0.branchPred.BTBHits                      0                       # Number of BTB hits
system.cpu0.branchPred.BTBCorrect                   0                       # Number of correct BTB predictions (this stat may not work properly.
system.cpu0.branchPred.BTBHitPct             0.000000                       # BTB Hit Percentage
system.cpu0.branchPred.usedRAS                 232409                       # Number of times the RAS was used to get a target.
system.cpu0.branchPred.RASInCorrect             31732                       # Number of incorrect RAS predictions.
system.cpu0.branchPred.indirectLookups        5364854                       # Number of indirect predictor lookups.
system.cpu0.branchPred.indirectHits           3018533                       # Number of indirect target hits.
system.cpu0.branchPred.indirectMisses         2346321                       # Number of indirect misses.
system.cpu0.branchPredindirectMispredicted       112697                       # Number of mispredicted indirect branches.
system.cpu_voltage_domain.voltage                   1                       # Voltage in Volts
system.cpu_clk_domain.clock                       500                       # Clock period in ticks
system.cpu0.dtb.walker.pwrStateResidencyTicks::UNDEFINED  15267344125                       # Cumulative time (in ticks) in various power states
system.cpu0.dtb.rdAccesses                    3535724                       # TLB accesses on read requests
system.cpu0.dtb.wrAccesses                     297930                       # TLB accesses on write requests
system.cpu0.dtb.rdMisses                       723098                       # TLB misses on read requests
system.cpu0.dtb.wrMisses                         5365                       # TLB misses on write requests
system.cpu0.apic_clk_domain.clock                8000                       # Clock period in ticks
system.cpu0.interrupts.pwrStateResidencyTicks::UNDEFINED  15267344125                       # Cumulative time (in ticks) in various power states
system.cpu0.itb.walker.pwrStateResidencyTicks::UNDEFINED  15267344125                       # Cumulative time (in ticks) in various power states
system.cpu0.itb.rdAccesses                          0                       # TLB accesses on read requests
system.cpu0.itb.wrAccesses                    6004569                       # TLB accesses on write requests
system.cpu0.itb.rdMisses                            0                       # TLB misses on read requests
system.cpu0.itb.wrMisses                        19515                       # TLB misses on write requests
system.cpu0.workload.numSyscalls                    1                       # Number of system calls
system.cpu0.pwrStateResidencyTicks::ON    15267344125                       # Cumulative time (in ticks) in various power states
system.cpu0.numCycles                        30534689                       # number of cpu cycles simulated
system.cpu0.numWorkItemsStarted                     0                       # number of work items this cpu started
system.cpu0.numWorkItemsCompleted                   0                       # number of work items this cpu completed
system.cpu0.fetch.icacheStallCycles           6148687                       # Number of cycles fetch is stalled on an Icache miss
system.cpu0.fetch.Insts                      21212740                       # Number of instructions fetch has processed
system.cpu0.fetch.Branches                    7189453                       # Number of branches that fetch encountered
system.cpu0.fetch.predictedBranches           3250942                       # Number of branches that fetch has predicted taken
system.cpu0.fetch.Cycles                     23906549                       # Number of cycles fetch has run and was not squashing or blocked
system.cpu0.fetch.SquashCycles                 658178                       # Number of cycles fetch has spent squashing
system.cpu0.fetch.TlbCycles                       880                       # Number of cycles fetch has spent waiting for tlb
system.cpu0.fetch.MiscStallCycles                4320                       # Number of cycles fetch has spent waiting on interrupts, or bad addresses, or out of MSHRs
system.cpu0.fetch.PendingTrapStallCycles       144015                       # Number of stall cycles due to pending traps
system.cpu0.fetch.PendingQuiesceStallCycles            3                       # Number of stall cycles due to pending quiesce instructions
system.cpu0.fetch.CacheLines                  5985054                       # Number of cache lines fetched
system.cpu0.fetch.IcacheSquashes                56461                       # Number of outstanding Icache misses that were squashed
system.cpu0.fetch.ItlbSquashes                     12                       # Number of outstanding ITLB misses that were squashed
system.cpu0.fetch.rateDist::samples          30533543                       # Number of instructions fetched each cycle (Total)
system.cpu0.fetch.rateDist::mean             1.398823                       # Number of instructions fetched each cycle (Total)
system.cpu0.fetch.rateDist::stdev            2.725085                       # Number of instructions fetched each cycle (Total)
system.cpu0.fetch.rateDist::underflows              0      0.00%      0.00% # Number of instructions fetched each cycle (Total)
system.cpu0.fetch.rateDist::0                22395359     73.35%     73.35% # Number of instructions fetched each cycle (Total)
system.cpu0.fetch.rateDist::1                   86747      0.28%     73.63% # Number of instructions fetched each cycle (Total)
system.cpu0.fetch.rateDist::2                 2875392      9.42%     83.05% # Number of instructions fetched each cycle (Total)
system.cpu0.fetch.rateDist::3                  132753      0.43%     83.48% # Number of instructions fetched each cycle (Total)
system.cpu0.fetch.rateDist::4                  548442      1.80%     85.28% # Number of instructions fetched each cycle (Total)
system.cpu0.fetch.rateDist::5                  283521      0.93%     86.21% # Number of instructions fetched each cycle (Total)
system.cpu0.fetch.rateDist::6                  360172      1.18%     87.39% # Number of instructions fetched each cycle (Total)
system.cpu0.fetch.rateDist::7                  106430      0.35%     87.74% # Number of instructions fetched each cycle (Total)
system.cpu0.fetch.rateDist::8                 3744727     12.26%    100.00% # Number of instructions fetched each cycle (Total)
system.cpu0.fetch.rateDist::overflows               0      0.00%    100.00% # Number of instructions fetched each cycle (Total)
system.cpu0.fetch.rateDist::min_value               0                       # Number of instructions fetched each cycle (Total)
system.cpu0.fetch.rateDist::max_value               8                       # Number of instructions fetched each cycle (Total)
system.cpu0.fetch.rateDist::total            30533543                       # Number of instructions fetched each cycle (Total)
system.cpu0.fetch.branchRate                 0.235452                       # Number of branch fetches per cycle
system.cpu0.fetch.rate                       0.694710                       # Number of inst fetches per cycle
system.cpu0.decode.IdleCycles                 3304413                       # Number of cycles decode is idle
system.cpu0.decode.BlockedCycles             21241568                       # Number of cycles decode is blocked
system.cpu0.decode.RunCycles                  4393001                       # Number of cycles decode is running
system.cpu0.decode.UnblockCycles              1265472                       # Number of cycles decode is unblocking
system.cpu0.decode.SquashCycles                329089                       # Number of cycles decode is squashing
system.cpu0.decode.DecodedInsts              36491695                       # Number of instructions handled by decode
system.cpu0.rename.SquashCycles                329089                       # Number of cycles rename is squashing
system.cpu0.rename.IdleCycles                 3807051                       # Number of cycles rename is idle
system.cpu0.rename.BlockCycles               17048743                       # Number of cycles rename is blocking
system.cpu0.rename.serializeStallCycles        104933                       # count of cycles rename stalled for serializing inst
system.cpu0.rename.RunCycles                  4909820                       # Number of cycles rename is running
system.cpu0.rename.UnblockCycles              4333907                       # Number of cycles rename is unblocking
system.cpu0.rename.RenamedInsts              34995415                       # Number of instructions processed by rename
system.cpu0.rename.ROBFullEvents                76438                       # Number of times rename has blocked due to ROB full
system.cpu0.rename.IQFullEvents               3818021                       # Number of times rename has blocked due to IQ full
system.cpu0.rename.LQFullEvents                 88024                       # Number of times rename has blocked due to LQ full
system.cpu0.rename.SQFullEvents                191918                       # Number of times rename has blocked due to SQ full
system.cpu0.rename.RenamedOperands           41683787                       # Number of destination operands rename has renamed
system.cpu0.rename.RenameLookups             97116268                       # Number of register rename lookups that rename has made
system.cpu0.rename.int_rename_lookups        46365640                       # Number of integer rename lookups
system.cpu0.rename.fp_rename_lookups           248351                       # Number of floating rename lookups
system.cpu0.rename.CommittedMaps             15594810                       # Number of HB maps that are committed
system.cpu0.rename.UndoneMaps                26088991                       # Number of HB maps that are undone due to squashing
system.cpu0.rename.serializingInsts              1519                       # count of serializing insts renamed
system.cpu0.rename.tempSerializingInsts          1835                       # count of temporary serializing insts renamed
system.cpu0.rename.skidInsts                  7775286                       # count of insts added to the skid buffer
system.cpu0.memDep0.insertedLoads             6146942                       # Number of loads inserted to the mem dependence unit.
system.cpu0.memDep0.insertedStores             429619                       # Number of stores inserted to the mem dependence unit.
system.cpu0.memDep0.conflictingLoads            28508                       # Number of conflicting loads.
system.cpu0.memDep0.conflictingStores           27984                       # Number of conflicting stores.
system.cpu0.iq.iqInstsAdded                  32984010                       # Number of instructions added to the IQ (excludes non-spec)
system.cpu0.iq.iqNonSpecInstsAdded              23319                       # Number of non-speculative instructions added to the IQ
system.cpu0.iq.iqInstsIssued                 23900563                       # Number of instructions issued
system.cpu0.iq.iqSquashedInstsIssued            40926                       # Number of squashed instructions issued
system.cpu0.iq.iqSquashedInstsExamined       20007394                       # Number of squashed instructions iterated over during squash; mainly for profiling
system.cpu0.iq.iqSquashedOperandsExamined     41936870                       # Number of squashed operands that are examined and possibly removed from graph
system.cpu0.iq.iqSquashedNonSpecRemoved         23318                       # Number of squashed non-spec instructions that were removed
system.cpu0.iq.issued_per_cycle::samples     30533543                       # Number of insts issued each cycle
system.cpu0.iq.issued_per_cycle::mean        0.782764                       # Number of insts issued each cycle
system.cpu0.iq.issued_per_cycle::stdev       1.520836                       # Number of insts issued each cycle
system.cpu0.iq.issued_per_cycle::underflows            0      0.00%      0.00% # Number of insts issued each cycle
system.cpu0.iq.issued_per_cycle::0           21518584     70.48%     70.48% # Number of insts issued each cycle
system.cpu0.iq.issued_per_cycle::1            3095539     10.14%     80.61% # Number of insts issued each cycle
system.cpu0.iq.issued_per_cycle::2            1903677      6.23%     86.85% # Number of insts issued each cycle
system.cpu0.iq.issued_per_cycle::3            1376290      4.51%     91.36% # Number of insts issued each cycle
system.cpu0.iq.issued_per_cycle::4            1416437      4.64%     95.99% # Number of insts issued each cycle
system.cpu0.iq.issued_per_cycle::5             533997      1.75%     97.74% # Number of insts issued each cycle
system.cpu0.iq.issued_per_cycle::6             405068      1.33%     99.07% # Number of insts issued each cycle
system.cpu0.iq.issued_per_cycle::7             168949      0.55%     99.62% # Number of insts issued each cycle
system.cpu0.iq.issued_per_cycle::8             115002      0.38%    100.00% # Number of insts issued each cycle
system.cpu0.iq.issued_per_cycle::overflows            0      0.00%    100.00% # Number of insts issued each cycle
system.cpu0.iq.issued_per_cycle::min_value            0                       # Number of insts issued each cycle
system.cpu0.iq.issued_per_cycle::max_value            8                       # Number of insts issued each cycle
system.cpu0.iq.issued_per_cycle::total       30533543                       # Number of insts issued each cycle
system.cpu0.iq.fu_full::No_OpClass                  0      0.00%      0.00% # attempts to use FU when none available
system.cpu0.iq.fu_full::IntAlu                  75806     74.62%     74.62% # attempts to use FU when none available
system.cpu0.iq.fu_full::IntMult                     0      0.00%     74.62% # attempts to use FU when none available
system.cpu0.iq.fu_full::IntDiv                      0      0.00%     74.62% # attempts to use FU when none available
system.cpu0.iq.fu_full::FloatAdd                 7167      7.05%     81.67% # attempts to use FU when none available
system.cpu0.iq.fu_full::FloatCmp                    0      0.00%     81.67% # attempts to use FU when none available
system.cpu0.iq.fu_full::FloatCvt                    0      0.00%     81.67% # attempts to use FU when none available
system.cpu0.iq.fu_full::FloatMult                   0      0.00%     81.67% # attempts to use FU when none available
system.cpu0.iq.fu_full::FloatMultAcc                0      0.00%     81.67% # attempts to use FU when none available
system.cpu0.iq.fu_full::FloatDiv                    0      0.00%     81.67% # attempts to use FU when none available
system.cpu0.iq.fu_full::FloatMisc                   0      0.00%     81.67% # attempts to use FU when none available
system.cpu0.iq.fu_full::FloatSqrt                   0      0.00%     81.67% # attempts to use FU when none available
system.cpu0.iq.fu_full::SimdAdd                     0      0.00%     81.67% # attempts to use FU when none available
system.cpu0.iq.fu_full::SimdAddAcc                  0      0.00%     81.67% # attempts to use FU when none available
system.cpu0.iq.fu_full::SimdAlu                     0      0.00%     81.67% # attempts to use FU when none available
system.cpu0.iq.fu_full::SimdCmp                     0      0.00%     81.67% # attempts to use FU when none available
system.cpu0.iq.fu_full::SimdCvt                     0      0.00%     81.67% # attempts to use FU when none available
system.cpu0.iq.fu_full::SimdMisc                    0      0.00%     81.67% # attempts to use FU when none available
system.cpu0.iq.fu_full::SimdMult                    0      0.00%     81.67% # attempts to use FU when none available
system.cpu0.iq.fu_full::SimdMultAcc                 0      0.00%     81.67% # attempts to use FU when none available
system.cpu0.iq.fu_full::SimdShift                   0      0.00%     81.67% # attempts to use FU when none available
system.cpu0.iq.fu_full::SimdShiftAcc                0      0.00%     81.67% # attempts to use FU when none available
system.cpu0.iq.fu_full::SimdSqrt                    0      0.00%     81.67% # attempts to use FU when none available
system.cpu0.iq.fu_full::SimdFloatAdd                0      0.00%     81.67% # attempts to use FU when none available
system.cpu0.iq.fu_full::SimdFloatAlu                0      0.00%     81.67% # attempts to use FU when none available
system.cpu0.iq.fu_full::SimdFloatCmp                0      0.00%     81.67% # attempts to use FU when none available
system.cpu0.iq.fu_full::SimdFloatCvt                0      0.00%     81.67% # attempts to use FU when none available
system.cpu0.iq.fu_full::SimdFloatDiv                0      0.00%     81.67% # attempts to use FU when none available
system.cpu0.iq.fu_full::SimdFloatMisc               0      0.00%     81.67% # attempts to use FU when none available
system.cpu0.iq.fu_full::SimdFloatMult               0      0.00%     81.67% # attempts to use FU when none available
system.cpu0.iq.fu_full::SimdFloatMultAcc            0      0.00%     81.67% # attempts to use FU when none available
system.cpu0.iq.fu_full::SimdFloatSqrt               0      0.00%     81.67% # attempts to use FU when none available
system.cpu0.iq.fu_full::MemRead                 15741     15.49%     97.17% # attempts to use FU when none available
system.cpu0.iq.fu_full::MemWrite                 1724      1.70%     98.86% # attempts to use FU when none available
system.cpu0.iq.fu_full::FloatMemRead              717      0.71%     99.57% # attempts to use FU when none available
system.cpu0.iq.fu_full::FloatMemWrite             439      0.43%    100.00% # attempts to use FU when none available
system.cpu0.iq.fu_full::IprAccess                   0      0.00%    100.00% # attempts to use FU when none available
system.cpu0.iq.fu_full::InstPrefetch                0      0.00%    100.00% # attempts to use FU when none available
system.cpu0.iq.FU_type_0::No_OpClass            88755      0.37%      0.37% # Type of FU issued
system.cpu0.iq.FU_type_0::IntAlu             19574557     81.90%     82.27% # Type of FU issued
system.cpu0.iq.FU_type_0::IntMult                4723      0.02%     82.29% # Type of FU issued
system.cpu0.iq.FU_type_0::IntDiv                64037      0.27%     82.56% # Type of FU issued
system.cpu0.iq.FU_type_0::FloatAdd              92234      0.39%     82.94% # Type of FU issued
system.cpu0.iq.FU_type_0::FloatCmp                  0      0.00%     82.94% # Type of FU issued
system.cpu0.iq.FU_type_0::FloatCvt                  0      0.00%     82.94% # Type of FU issued
system.cpu0.iq.FU_type_0::FloatMult                 0      0.00%     82.94% # Type of FU issued
system.cpu0.iq.FU_type_0::FloatMultAcc              0      0.00%     82.94% # Type of FU issued
system.cpu0.iq.FU_type_0::FloatDiv                  0      0.00%     82.94% # Type of FU issued
system.cpu0.iq.FU_type_0::FloatMisc                 0      0.00%     82.94% # Type of FU issued
system.cpu0.iq.FU_type_0::FloatSqrt                 0      0.00%     82.94% # Type of FU issued
system.cpu0.iq.FU_type_0::SimdAdd                   0      0.00%     82.94% # Type of FU issued
system.cpu0.iq.FU_type_0::SimdAddAcc                0      0.00%     82.94% # Type of FU issued
system.cpu0.iq.FU_type_0::SimdAlu                   0      0.00%     82.94% # Type of FU issued
system.cpu0.iq.FU_type_0::SimdCmp                   0      0.00%     82.94% # Type of FU issued
system.cpu0.iq.FU_type_0::SimdCvt                   0      0.00%     82.94% # Type of FU issued
system.cpu0.iq.FU_type_0::SimdMisc                  0      0.00%     82.94% # Type of FU issued
system.cpu0.iq.FU_type_0::SimdMult                  0      0.00%     82.94% # Type of FU issued
system.cpu0.iq.FU_type_0::SimdMultAcc               0      0.00%     82.94% # Type of FU issued
system.cpu0.iq.FU_type_0::SimdShift                 0      0.00%     82.94% # Type of FU issued
system.cpu0.iq.FU_type_0::SimdShiftAcc              0      0.00%     82.94% # Type of FU issued
system.cpu0.iq.FU_type_0::SimdSqrt                  0      0.00%     82.94% # Type of FU issued
system.cpu0.iq.FU_type_0::SimdFloatAdd              0      0.00%     82.94% # Type of FU issued
system.cpu0.iq.FU_type_0::SimdFloatAlu              0      0.00%     82.94% # Type of FU issued
system.cpu0.iq.FU_type_0::SimdFloatCmp              0      0.00%     82.94% # Type of FU issued
system.cpu0.iq.FU_type_0::SimdFloatCvt              0      0.00%     82.94% # Type of FU issued
system.cpu0.iq.FU_type_0::SimdFloatDiv              0      0.00%     82.94% # Type of FU issued
system.cpu0.iq.FU_type_0::SimdFloatMisc             0      0.00%     82.94% # Type of FU issued
system.cpu0.iq.FU_type_0::SimdFloatMult             0      0.00%     82.94% # Type of FU issued
system.cpu0.iq.FU_type_0::SimdFloatMultAcc            0      0.00%     82.94% # Type of FU issued
system.cpu0.iq.FU_type_0::SimdFloatSqrt             0      0.00%     82.94% # Type of FU issued
system.cpu0.iq.FU_type_0::MemRead             3739743     15.65%     98.59% # Type of FU issued
system.cpu0.iq.FU_type_0::MemWrite             318050      1.33%     99.92% # Type of FU issued
system.cpu0.iq.FU_type_0::FloatMemRead          16972      0.07%     99.99% # Type of FU issued
system.cpu0.iq.FU_type_0::FloatMemWrite          1492      0.01%    100.00% # Type of FU issued
system.cpu0.iq.FU_type_0::IprAccess                 0      0.00%    100.00% # Type of FU issued
system.cpu0.iq.FU_type_0::InstPrefetch              0      0.00%    100.00% # Type of FU issued
system.cpu0.iq.FU_type_0::total              23900563                       # Type of FU issued
system.cpu0.iq.rate                          0.782735                       # Inst issue rate
system.cpu0.iq.fu_busy_cnt                     101594                       # FU busy when requested
system.cpu0.iq.fu_busy_rate                  0.004251                       # FU busy rate (busy events/executed inst)
system.cpu0.iq.int_inst_queue_reads          78245257                       # Number of integer instruction queue reads
system.cpu0.iq.int_inst_queue_writes         52804503                       # Number of integer instruction queue writes
system.cpu0.iq.int_inst_queue_wakeup_accesses     22770934                       # Number of integer instruction queue wakeup accesses
system.cpu0.iq.fp_inst_queue_reads             231938                       # Number of floating instruction queue reads
system.cpu0.iq.fp_inst_queue_writes            210246                       # Number of floating instruction queue writes
system.cpu0.iq.fp_inst_queue_wakeup_accesses       101450                       # Number of floating instruction queue wakeup accesses
system.cpu0.iq.vec_inst_queue_reads                 0                       # Number of vector instruction queue reads
system.cpu0.iq.vec_inst_queue_writes                0                       # Number of vector instruction queue writes
system.cpu0.iq.vec_inst_queue_wakeup_accesses            0                       # Number of vector instruction queue wakeup accesses
system.cpu0.iq.int_alu_accesses              23794290                       # Number of integer alu accesses
system.cpu0.iq.fp_alu_accesses                 119112                       # Number of floating point alu accesses
system.cpu0.iq.vec_alu_accesses                     0                       # Number of vector alu accesses
system.cpu0.iew.lsq.thread0.forwLoads           35888                       # Number of loads that had data forwarded from stores
system.cpu0.iew.lsq.thread0.invAddrLoads            0                       # Number of loads ignored due to an invalid address
system.cpu0.iew.lsq.thread0.squashedLoads      3781740                       # Number of loads squashed
system.cpu0.iew.lsq.thread0.ignoredResponses          932                       # Number of memory responses ignored because the instruction is squashed
system.cpu0.iew.lsq.thread0.memOrderViolation           28                       # Number of memory ordering violations
system.cpu0.iew.lsq.thread0.squashedStores       236524                       # Number of stores squashed
system.cpu0.iew.lsq.thread0.invAddrSwpfs            0                       # Number of software prefetches ignored due to an invalid address
system.cpu0.iew.lsq.thread0.blockedLoads            0                       # Number of blocked loads due to partial load-store forwarding
system.cpu0.iew.lsq.thread0.rescheduledLoads          294                       # Number of loads that were rescheduled
system.cpu0.iew.lsq.thread0.cacheBlocked        10820                       # Number of times an access to memory failed due to the cache being blocked
system.cpu0.iew.iewIdleCycles                       0                       # Number of cycles IEW is idle
system.cpu0.iew.iewSquashCycles                329089                       # Number of cycles IEW is squashing
system.cpu0.iew.iewBlockCycles               13915283                       # Number of cycles IEW is blocking
system.cpu0.iew.iewUnblockCycles               680458                       # Number of cycles IEW is unblocking
system.cpu0.iew.iewDispatchedInsts           33007329                       # Number of instructions dispatched to IQ
system.cpu0.iew.iewDispSquashedInsts            18440                       # Number of squashed instructions skipped by dispatch
system.cpu0.iew.iewDispLoadInsts              6146942                       # Number of dispatched load instructions
system.cpu0.iew.iewDispStoreInsts              429619                       # Number of dispatched store instructions
system.cpu0.iew.iewDispNonSpecInsts              8668                       # Number of dispatched non-speculative instructions
system.cpu0.iew.iewIQFullEvents                 31793                       # Number of times the IQ has become full, causing a stall
system.cpu0.iew.iewLSQFullEvents                42050                       # Number of times the LSQ has become full, causing a stall
system.cpu0.iew.memOrderViolationEvents            28                       # Number of memory order violations
system.cpu0.iew.predictedTakenIncorrect        171689                       # Number of branches that were predicted taken incorrectly
system.cpu0.iew.predictedNotTakenIncorrect       196710                       # Number of branches that were predicted not taken incorrectly
system.cpu0.iew.branchMispredicts              368399                       # Number of branch mispredicts detected at execute
system.cpu0.iew.iewExecutedInsts             23356791                       # Number of executed instructions
system.cpu0.iew.iewExecLoadInsts              3534037                       # Number of load instructions executed
system.cpu0.iew.iewExecSquashedInsts           543778                       # Number of squashed instructions skipped in execute
system.cpu0.iew.exec_swp                            0                       # number of swp insts executed
system.cpu0.iew.exec_nop                            0                       # number of nop insts executed
system.cpu0.iew.exec_refs                     3831882                       # number of memory reference insts executed
system.cpu0.iew.exec_branches                 2796751                       # Number of branches executed
system.cpu0.iew.exec_stores                    297845                       # Number of stores executed
system.cpu0.iew.exec_rate                    0.764926                       # Inst execution rate
system.cpu0.iew.wb_sent                      22964993                       # cumulative count of insts sent to commit
system.cpu0.iew.wb_count                     22872384                       # cumulative count of insts written-back
system.cpu0.iew.wb_producers                 17092715                       # num instructions producing a value
system.cpu0.iew.wb_consumers                 27402187                       # num instructions consuming a value
system.cpu0.iew.wb_rate                      0.749062                       # insts written-back per cycle
system.cpu0.iew.wb_fanout                    0.623772                       # average fanout of values written-back
system.cpu0.commit.commitSquashedInsts       20008883                       # The number of squashed insts skipped by commit
system.cpu0.commit.commitNonSpecStalls              1                       # The number of times commit has been forced to stall to communicate backwards
system.cpu0.commit.branchMispredicts           329070                       # The number of times a branch was mispredicted
system.cpu0.commit.committed_per_cycle::samples     27701511                       # Number of insts commited each cycle
system.cpu0.commit.committed_per_cycle::mean     0.469286                       # Number of insts commited each cycle
system.cpu0.commit.committed_per_cycle::stdev     1.215745                       # Number of insts commited each cycle
system.cpu0.commit.committed_per_cycle::underflows            0      0.00%      0.00% # Number of insts commited each cycle
system.cpu0.commit.committed_per_cycle::0     22209276     80.17%     80.17% # Number of insts commited each cycle
system.cpu0.commit.committed_per_cycle::1      2474058      8.93%     89.10% # Number of insts commited each cycle
system.cpu0.commit.committed_per_cycle::2       619670      2.24%     91.34% # Number of insts commited each cycle
system.cpu0.commit.committed_per_cycle::3      1622283      5.86%     97.20% # Number of insts commited each cycle
system.cpu0.commit.committed_per_cycle::4       298738      1.08%     98.28% # Number of insts commited each cycle
system.cpu0.commit.committed_per_cycle::5       168886      0.61%     98.89% # Number of insts commited each cycle
system.cpu0.commit.committed_per_cycle::6        33204      0.12%     99.01% # Number of insts commited each cycle
system.cpu0.commit.committed_per_cycle::7        22093      0.08%     99.09% # Number of insts commited each cycle
system.cpu0.commit.committed_per_cycle::8       253303      0.91%    100.00% # Number of insts commited each cycle
system.cpu0.commit.committed_per_cycle::overflows            0      0.00%    100.00% # Number of insts commited each cycle
system.cpu0.commit.committed_per_cycle::min_value            0                       # Number of insts commited each cycle
system.cpu0.commit.committed_per_cycle::max_value            8                       # Number of insts commited each cycle
system.cpu0.commit.committed_per_cycle::total     27701511                       # Number of insts commited each cycle
system.cpu0.commit.committedInsts             6509948                       # Number of instructions committed
system.cpu0.commit.committedOps              12999928                       # Number of ops (including micro ops) committed
system.cpu0.commit.swp_count                        0                       # Number of s/w prefetches committed
system.cpu0.commit.refs                       2558290                       # Number of memory references committed
system.cpu0.commit.loads                      2365195                       # Number of loads committed
system.cpu0.commit.membars                          0                       # Number of memory barriers committed
system.cpu0.commit.branches                   2254896                       # Number of branches committed
system.cpu0.commit.vec_insts                        0                       # Number of committed Vector instructions.
system.cpu0.commit.fp_insts                     76916                       # Number of committed floating point instructions.
system.cpu0.commit.int_insts                 12922146                       # Number of committed integer instructions.
system.cpu0.commit.function_calls               34004                       # Number of function calls committed.
system.cpu0.commit.op_class_0::No_OpClass        23129      0.18%      0.18% # Class of committed instruction
system.cpu0.commit.op_class_0::IntAlu        10295569     79.20%     79.38% # Class of committed instruction
system.cpu0.commit.op_class_0::IntMult           1360      0.01%     79.39% # Class of committed instruction
system.cpu0.commit.op_class_0::IntDiv           55796      0.43%     79.81% # Class of committed instruction
system.cpu0.commit.op_class_0::FloatAdd         65784      0.51%     80.32% # Class of committed instruction
system.cpu0.commit.op_class_0::FloatCmp             0      0.00%     80.32% # Class of committed instruction
system.cpu0.commit.op_class_0::FloatCvt             0      0.00%     80.32% # Class of committed instruction
system.cpu0.commit.op_class_0::FloatMult            0      0.00%     80.32% # Class of committed instruction
system.cpu0.commit.op_class_0::FloatMultAcc            0      0.00%     80.32% # Class of committed instruction
system.cpu0.commit.op_class_0::FloatDiv             0      0.00%     80.32% # Class of committed instruction
system.cpu0.commit.op_class_0::FloatMisc            0      0.00%     80.32% # Class of committed instruction
system.cpu0.commit.op_class_0::FloatSqrt            0      0.00%     80.32% # Class of committed instruction
system.cpu0.commit.op_class_0::SimdAdd              0      0.00%     80.32% # Class of committed instruction
system.cpu0.commit.op_class_0::SimdAddAcc            0      0.00%     80.32% # Class of committed instruction
system.cpu0.commit.op_class_0::SimdAlu              0      0.00%     80.32% # Class of committed instruction
system.cpu0.commit.op_class_0::SimdCmp              0      0.00%     80.32% # Class of committed instruction
system.cpu0.commit.op_class_0::SimdCvt              0      0.00%     80.32% # Class of committed instruction
system.cpu0.commit.op_class_0::SimdMisc             0      0.00%     80.32% # Class of committed instruction
system.cpu0.commit.op_class_0::SimdMult             0      0.00%     80.32% # Class of committed instruction
system.cpu0.commit.op_class_0::SimdMultAcc            0      0.00%     80.32% # Class of committed instruction
system.cpu0.commit.op_class_0::SimdShift            0      0.00%     80.32% # Class of committed instruction
system.cpu0.commit.op_class_0::SimdShiftAcc            0      0.00%     80.32% # Class of committed instruction
system.cpu0.commit.op_class_0::SimdSqrt             0      0.00%     80.32% # Class of committed instruction
system.cpu0.commit.op_class_0::SimdFloatAdd            0      0.00%     80.32% # Class of committed instruction
system.cpu0.commit.op_class_0::SimdFloatAlu            0      0.00%     80.32% # Class of committed instruction
system.cpu0.commit.op_class_0::SimdFloatCmp            0      0.00%     80.32% # Class of committed instruction
system.cpu0.commit.op_class_0::SimdFloatCvt            0      0.00%     80.32% # Class of committed instruction
system.cpu0.commit.op_class_0::SimdFloatDiv            0      0.00%     80.32% # Class of committed instruction
system.cpu0.commit.op_class_0::SimdFloatMisc            0      0.00%     80.32% # Class of committed instruction
system.cpu0.commit.op_class_0::SimdFloatMult            0      0.00%     80.32% # Class of committed instruction
system.cpu0.commit.op_class_0::SimdFloatMultAcc            0      0.00%     80.32% # Class of committed instruction
system.cpu0.commit.op_class_0::SimdFloatSqrt            0      0.00%     80.32% # Class of committed instruction
system.cpu0.commit.op_class_0::MemRead        2354063     18.11%     98.43% # Class of committed instruction
system.cpu0.commit.op_class_0::MemWrite        193095      1.49%     99.91% # Class of committed instruction
system.cpu0.commit.op_class_0::FloatMemRead        11132      0.09%    100.00% # Class of committed instruction
system.cpu0.commit.op_class_0::FloatMemWrite            0      0.00%    100.00% # Class of committed instruction
system.cpu0.commit.op_class_0::IprAccess            0      0.00%    100.00% # Class of committed instruction
system.cpu0.commit.op_class_0::InstPrefetch            0      0.00%    100.00% # Class of committed instruction
system.cpu0.commit.op_class_0::total         12999928                       # Class of committed instruction
system.cpu0.commit.bw_lim_events               253303                       # number cycles where commit BW limit reached
system.cpu0.rob.rob_reads                    60457019                       # The number of ROB reads
system.cpu0.rob.rob_writes                   68860023                       # The number of ROB writes
system.cpu0.timesIdled                            342                       # Number of times that the entire CPU went into an idle state and unscheduled itself
system.cpu0.idleCycles                           1146                       # Total number of cycles that the CPU has spent unscheduled due to idling
system.cpu0.committedInsts                    6509948                       # Number of Instructions Simulated
system.cpu0.committedOps                     12999928                       # Number of Ops (including micro ops) Simulated
system.cpu0.cpi                              4.690466                       # CPI: Cycles Per Instruction
system.cpu0.cpi_total                        4.690466                       # CPI: Total CPI of All Threads
system.cpu0.ipc                              0.213198                       # IPC: Instructions Per Cycle
system.cpu0.ipc_total                        0.213198                       # IPC: Total IPC of All Threads
system.cpu0.int_regfile_reads                24023788                       # number of integer regfile reads
system.cpu0.int_regfile_writes               19825416                       # number of integer regfile writes
system.cpu0.fp_regfile_reads                   179920                       # number of floating regfile reads
system.cpu0.fp_regfile_writes                   89538                       # number of floating regfile writes
system.cpu0.cc_regfile_reads                 14847976                       # number of cc regfile reads
system.cpu0.cc_regfile_writes                 6433514                       # number of cc regfile writes
system.cpu0.misc_regfile_reads               12126706                       # number of misc regfile reads
system.cpu0.dcache.tags.pwrStateResidencyTicks::UNDEFINED  15267344125                       # Cumulative time (in ticks) in various power states
system.cpu0.dcache.tags.replacements          1202918                       # number of replacements
system.cpu0.dcache.tags.tagsinuse                 512                       # Cycle average of tags in use
system.cpu0.dcache.tags.total_refs            1638847                       # Total number of references to valid blocks.
system.cpu0.dcache.tags.sampled_refs          1202918                       # Sample count of references to valid blocks.
system.cpu0.dcache.tags.avg_refs             1.362393                       # Average number of references to valid blocks.
system.cpu0.dcache.tags.warmup_cycle                0                       # Cycle when the warmup percentage was hit.
system.cpu0.dcache.tags.occ_blocks::cpu0.data          512                       # Average occupied blocks per requestor
system.cpu0.dcache.tags.occ_percent::cpu0.data            1                       # Average percentage of cache occupancy
system.cpu0.dcache.tags.occ_percent::total            1                       # Average percentage of cache occupancy
system.cpu0.dcache.tags.occ_task_id_blocks::1024          512                       # Occupied blocks per task id
system.cpu0.dcache.tags.age_task_id_blocks_1024::0          485                       # Occupied blocks per task id
system.cpu0.dcache.tags.age_task_id_blocks_1024::1           27                       # Occupied blocks per task id
system.cpu0.dcache.tags.occ_task_id_percent::1024            1                       # Percentage of cache occupancy per task id
system.cpu0.dcache.tags.tag_accesses         15858498                       # Number of tag accesses
system.cpu0.dcache.tags.data_accesses        15858498                       # Number of data accesses
system.cpu0.dcache.pwrStateResidencyTicks::UNDEFINED  15267344125                       # Cumulative time (in ticks) in various power states
system.cpu0.dcache.ReadReq_hits::cpu0.data      1453596                       # number of ReadReq hits
system.cpu0.dcache.ReadReq_hits::total        1453596                       # number of ReadReq hits
system.cpu0.dcache.WriteReq_hits::cpu0.data       185006                       # number of WriteReq hits
system.cpu0.dcache.WriteReq_hits::total        185006                       # number of WriteReq hits
system.cpu0.dcache.demand_hits::cpu0.data      1638602                       # number of demand (read+write) hits
system.cpu0.dcache.demand_hits::total         1638602                       # number of demand (read+write) hits
system.cpu0.dcache.overall_hits::cpu0.data      1638602                       # number of overall hits
system.cpu0.dcache.overall_hits::total        1638602                       # number of overall hits
system.cpu0.dcache.ReadReq_misses::cpu0.data      2017204                       # number of ReadReq misses
system.cpu0.dcache.ReadReq_misses::total      2017204                       # number of ReadReq misses
system.cpu0.dcache.WriteReq_misses::cpu0.data         8089                       # number of WriteReq misses
system.cpu0.dcache.WriteReq_misses::total         8089                       # number of WriteReq misses
system.cpu0.dcache.demand_misses::cpu0.data      2025293                       # number of demand (read+write) misses
system.cpu0.dcache.demand_misses::total       2025293                       # number of demand (read+write) misses
system.cpu0.dcache.overall_misses::cpu0.data      2025293                       # number of overall misses
system.cpu0.dcache.overall_misses::total      2025293                       # number of overall misses
system.cpu0.dcache.ReadReq_miss_latency::cpu0.data  27893026500                       # number of ReadReq miss cycles
system.cpu0.dcache.ReadReq_miss_latency::total  27893026500                       # number of ReadReq miss cycles
system.cpu0.dcache.WriteReq_miss_latency::cpu0.data    451529977                       # number of WriteReq miss cycles
system.cpu0.dcache.WriteReq_miss_latency::total    451529977                       # number of WriteReq miss cycles
system.cpu0.dcache.demand_miss_latency::cpu0.data  28344556477                       # number of demand (read+write) miss cycles
system.cpu0.dcache.demand_miss_latency::total  28344556477                       # number of demand (read+write) miss cycles
system.cpu0.dcache.overall_miss_latency::cpu0.data  28344556477                       # number of overall miss cycles
system.cpu0.dcache.overall_miss_latency::total  28344556477                       # number of overall miss cycles
system.cpu0.dcache.ReadReq_accesses::cpu0.data      3470800                       # number of ReadReq accesses(hits+misses)
system.cpu0.dcache.ReadReq_accesses::total      3470800                       # number of ReadReq accesses(hits+misses)
system.cpu0.dcache.WriteReq_accesses::cpu0.data       193095                       # number of WriteReq accesses(hits+misses)
system.cpu0.dcache.WriteReq_accesses::total       193095                       # number of WriteReq accesses(hits+misses)
system.cpu0.dcache.demand_accesses::cpu0.data      3663895                       # number of demand (read+write) accesses
system.cpu0.dcache.demand_accesses::total      3663895                       # number of demand (read+write) accesses
system.cpu0.dcache.overall_accesses::cpu0.data      3663895                       # number of overall (read+write) accesses
system.cpu0.dcache.overall_accesses::total      3663895                       # number of overall (read+write) accesses
system.cpu0.dcache.ReadReq_miss_rate::cpu0.data     0.581193                       # miss rate for ReadReq accesses
system.cpu0.dcache.ReadReq_miss_rate::total     0.581193                       # miss rate for ReadReq accesses
system.cpu0.dcache.WriteReq_miss_rate::cpu0.data     0.041891                       # miss rate for WriteReq accesses
system.cpu0.dcache.WriteReq_miss_rate::total     0.041891                       # miss rate for WriteReq accesses
system.cpu0.dcache.demand_miss_rate::cpu0.data     0.552770                       # miss rate for demand accesses
system.cpu0.dcache.demand_miss_rate::total     0.552770                       # miss rate for demand accesses
system.cpu0.dcache.overall_miss_rate::cpu0.data     0.552770                       # miss rate for overall accesses
system.cpu0.dcache.overall_miss_rate::total     0.552770                       # miss rate for overall accesses
system.cpu0.dcache.ReadReq_avg_miss_latency::cpu0.data 13827.568506                       # average ReadReq miss latency
system.cpu0.dcache.ReadReq_avg_miss_latency::total 13827.568506                       # average ReadReq miss latency
system.cpu0.dcache.WriteReq_avg_miss_latency::cpu0.data 55820.246878                       # average WriteReq miss latency
system.cpu0.dcache.WriteReq_avg_miss_latency::total 55820.246878                       # average WriteReq miss latency
system.cpu0.dcache.demand_avg_miss_latency::cpu0.data 13995.286843                       # average overall miss latency
system.cpu0.dcache.demand_avg_miss_latency::total 13995.286843                       # average overall miss latency
system.cpu0.dcache.overall_avg_miss_latency::cpu0.data 13995.286843                       # average overall miss latency
system.cpu0.dcache.overall_avg_miss_latency::total 13995.286843                       # average overall miss latency
[...]
system.l2.overall_miss_latency::total       767132000                       # number of overall miss cycles
system.l2.WritebackDirty_accesses::writebacks      1182012                       # number of WritebackDirty accesses(hits+misses)
system.l2.WritebackDirty_accesses::total      1182012                       # number of WritebackDirty accesses(hits+misses)
system.l2.WritebackClean_accesses::writebacks           44                       # number of WritebackClean accesses(hits+misses)
system.l2.WritebackClean_accesses::total           44                       # number of WritebackClean accesses(hits+misses)
system.l2.ReadExReq_accesses::cpu0.data          8062                       # number of ReadExReq accesses(hits+misses)
system.l2.ReadExReq_accesses::total              8062                       # number of ReadExReq accesses(hits+misses)
system.l2.ReadCleanReq_accesses::cpu0.inst           44                       # number of ReadCleanReq accesses(hits+misses)
system.l2.ReadCleanReq_accesses::total             44                       # number of ReadCleanReq accesses(hits+misses)
system.l2.ReadSharedReq_accesses::cpu0.data      1194856                       # number of ReadSharedReq accesses(hits+misses)
system.l2.ReadSharedReq_accesses::total       1194856                       # number of ReadSharedReq accesses(hits+misses)
system.l2.demand_accesses::cpu0.inst               44                       # number of demand (read+write) accesses
system.l2.demand_accesses::cpu0.data          1202918                       # number of demand (read+write) accesses
system.l2.demand_accesses::total              1202962                       # number of demand (read+write) accesses
system.l2.overall_accesses::cpu0.inst              44                       # number of overall (read+write) accesses
system.l2.overall_accesses::cpu0.data         1202918                       # number of overall (read+write) accesses
system.l2.overall_accesses::total             1202962                       # number of overall (read+write) accesses
system.l2.ReadExReq_miss_rate::cpu0.data     0.232076                       # miss rate for ReadExReq accesses
system.l2.ReadExReq_miss_rate::total         0.232076                       # miss rate for ReadExReq accesses
system.l2.ReadSharedReq_miss_rate::cpu0.data     0.001624                       # miss rate for ReadSharedReq accesses
system.l2.ReadSharedReq_miss_rate::total     0.001624                       # miss rate for ReadSharedReq accesses
system.l2.demand_miss_rate::cpu0.data        0.003169                       # miss rate for demand accesses
system.l2.demand_miss_rate::total            0.003169                       # miss rate for demand accesses
system.l2.overall_miss_rate::cpu0.data       0.003169                       # miss rate for overall accesses
system.l2.overall_miss_rate::total           0.003169                       # miss rate for overall accesses
system.l2.ReadExReq_avg_miss_latency::cpu0.data 192814.537680                       # average ReadExReq miss latency
system.l2.ReadExReq_avg_miss_latency::total 192814.537680                       # average ReadExReq miss latency
system.l2.ReadSharedReq_avg_miss_latency::cpu0.data 209364.245234                       # average ReadSharedReq miss latency
system.l2.ReadSharedReq_avg_miss_latency::total 209364.245234                       # average ReadSharedReq miss latency
system.l2.demand_avg_miss_latency::cpu0.data 201241.343127                       # average overall miss latency
system.l2.demand_avg_miss_latency::total 201241.343127                       # average overall miss latency
system.l2.overall_avg_miss_latency::cpu0.data 201241.343127                       # average overall miss latency
system.l2.overall_avg_miss_latency::total 201241.343127                       # average overall miss latency
system.l2.blocked_cycles::no_mshrs                  0                       # number of cycles access was blocked
system.l2.blocked_cycles::no_targets                0                       # number of cycles access was blocked
system.l2.blocked::no_mshrs                         0                       # number of cycles access was blocked
system.l2.blocked::no_targets                       0                       # number of cycles access was blocked
system.l2.avg_blocked_cycles::no_mshrs            nan                       # average number of cycles each access was blocked
system.l2.avg_blocked_cycles::no_targets          nan                       # average number of cycles each access was blocked
system.l2.writebacks::writebacks                  896                       # number of writebacks
system.l2.writebacks::total                       896                       # number of writebacks
system.l2.ReadExReq_mshr_misses::cpu0.data         1871                       # number of ReadExReq MSHR misses
system.l2.ReadExReq_mshr_misses::total           1871                       # number of ReadExReq MSHR misses
system.l2.ReadSharedReq_mshr_misses::cpu0.data         1941                       # number of ReadSharedReq MSHR misses
system.l2.ReadSharedReq_mshr_misses::total         1941                       # number of ReadSharedReq MSHR misses
system.l2.demand_mshr_misses::cpu0.data          3812                       # number of demand (read+write) MSHR misses
system.l2.demand_mshr_misses::total              3812                       # number of demand (read+write) MSHR misses
system.l2.overall_mshr_misses::cpu0.data         3812                       # number of overall MSHR misses
system.l2.overall_mshr_misses::total             3812                       # number of overall MSHR misses
system.l2.ReadExReq_mshr_miss_latency::cpu0.data    342046000                       # number of ReadExReq MSHR miss cycles
system.l2.ReadExReq_mshr_miss_latency::total    342046000                       # number of ReadExReq MSHR miss cycles
system.l2.ReadSharedReq_mshr_miss_latency::cpu0.data    386966000                       # number of ReadSharedReq MSHR miss cycles
system.l2.ReadSharedReq_mshr_miss_latency::total    386966000                       # number of ReadSharedReq MSHR miss cycles
system.l2.demand_mshr_miss_latency::cpu0.data    729012000                       # number of demand (read+write) MSHR miss cycles
system.l2.demand_mshr_miss_latency::total    729012000                       # number of demand (read+write) MSHR miss cycles
system.l2.overall_mshr_miss_latency::cpu0.data    729012000                       # number of overall MSHR miss cycles
system.l2.overall_mshr_miss_latency::total    729012000                       # number of overall MSHR miss cycles
system.l2.ReadExReq_mshr_miss_rate::cpu0.data     0.232076                       # mshr miss rate for ReadExReq accesses
system.l2.ReadExReq_mshr_miss_rate::total     0.232076                       # mshr miss rate for ReadExReq accesses
system.l2.ReadSharedReq_mshr_miss_rate::cpu0.data     0.001624                       # mshr miss rate for ReadSharedReq accesses
system.l2.ReadSharedReq_mshr_miss_rate::total     0.001624                       # mshr miss rate for ReadSharedReq accesses
system.l2.demand_mshr_miss_rate::cpu0.data     0.003169                       # mshr miss rate for demand accesses
system.l2.demand_mshr_miss_rate::total       0.003169                       # mshr miss rate for demand accesses
system.l2.overall_mshr_miss_rate::cpu0.data     0.003169                       # mshr miss rate for overall accesses
system.l2.overall_mshr_miss_rate::total      0.003169                       # mshr miss rate for overall accesses
system.l2.ReadExReq_avg_mshr_miss_latency::cpu0.data 182814.537680                       # average ReadExReq mshr miss latency
system.l2.ReadExReq_avg_mshr_miss_latency::total 182814.537680                       # average ReadExReq mshr miss latency
system.l2.ReadSharedReq_avg_mshr_miss_latency::cpu0.data 199364.245234                       # average ReadSharedReq mshr miss latency
system.l2.ReadSharedReq_avg_mshr_miss_latency::total 199364.245234                       # average ReadSharedReq mshr miss latency
system.l2.demand_avg_mshr_miss_latency::cpu0.data 191241.343127                       # average overall mshr miss latency
system.l2.demand_avg_mshr_miss_latency::total 191241.343127                       # average overall mshr miss latency
system.l2.overall_avg_mshr_miss_latency::cpu0.data 191241.343127                       # average overall mshr miss latency
system.l2.overall_avg_mshr_miss_latency::total 191241.343127                       # average overall mshr miss latency
system.membus.snoop_filter.tot_requests          7622                       # Total number of requests made to the snoop filter.
system.membus.snoop_filter.hit_single_requests         3810                       # Number of requests hitting in the snoop filter with a single holder of the requested data.
system.membus.snoop_filter.hit_multi_requests            0                       # Number of requests hitting in the snoop filter with multiple (>1) holders of the requested data.
system.membus.snoop_filter.tot_snoops               0                       # Total number of snoops made to the snoop filter.
system.membus.snoop_filter.hit_single_snoops            0                       # Number of snoops hitting in the snoop filter with a single holder of the requested data.
system.membus.snoop_filter.hit_multi_snoops            0                       # Number of snoops hitting in the snoop filter with multiple (>1) holders of the requested data.
system.membus.pwrStateResidencyTicks::UNDEFINED  15267344125                       # Cumulative time (in ticks) in various power states
system.membus.trans_dist::ReadResp               1941                       # Transaction distribution
system.membus.trans_dist::WritebackDirty          896                       # Transaction distribution
system.membus.trans_dist::CleanEvict             2914                       # Transaction distribution
system.membus.trans_dist::ReadExReq              1871                       # Transaction distribution
system.membus.trans_dist::ReadExResp             1871                       # Transaction distribution
system.membus.trans_dist::ReadSharedReq          1941                       # Transaction distribution
system.membus.pkt_count_system.l2.mem_side::system.mem_ctrls.port        11434                       # Packet count per connected master and slave (bytes)
system.membus.pkt_count_system.l2.mem_side::total        11434                       # Packet count per connected master and slave (bytes)
system.membus.pkt_count::total                  11434                       # Packet count per connected master and slave (bytes)
system.membus.pkt_size_system.l2.mem_side::system.mem_ctrls.port       301312                       # Cumulative packet size per connected master and slave (bytes)
system.membus.pkt_size_system.l2.mem_side::total       301312                       # Cumulative packet size per connected master and slave (bytes)
system.membus.pkt_size::total                  301312                       # Cumulative packet size per connected master and slave (bytes)
system.membus.snoops                                0                       # Total snoops (count)
system.membus.snoopTraffic                          0                       # Total snoop traffic (bytes)
system.membus.snoop_fanout::samples              3812                       # Request fanout histogram
system.membus.snoop_fanout::mean                    0                       # Request fanout histogram
system.membus.snoop_fanout::stdev                   0                       # Request fanout histogram
system.membus.snoop_fanout::underflows              0      0.00%      0.00% # Request fanout histogram
system.membus.snoop_fanout::0                    3812    100.00%    100.00% # Request fanout histogram
system.membus.snoop_fanout::1                       0      0.00%    100.00% # Request fanout histogram
system.membus.snoop_fanout::overflows               0      0.00%    100.00% # Request fanout histogram
system.membus.snoop_fanout::min_value               0                       # Request fanout histogram
system.membus.snoop_fanout::max_value               0                       # Request fanout histogram
system.membus.snoop_fanout::total                3812                       # Request fanout histogram
system.membus.reqLayer12.occupancy           12153000                       # Layer occupancy (ticks)
system.membus.reqLayer12.utilization              0.1                       # Layer utilization (%)
system.membus.respLayer1.occupancy           20805750                       # Layer occupancy (ticks)
system.membus.respLayer1.utilization              0.1                       # Layer utilization (%)
system.tol2bus.snoop_filter.tot_requests      2405924                       # Total number of requests made to the snoop filter.
system.tol2bus.snoop_filter.hit_single_requests      1202959                       # Number of requests hitting in the snoop filter with a single holder of the requested data.
system.tol2bus.snoop_filter.hit_multi_requests         3352                       # Number of requests hitting in the snoop filter with multiple (>1) holders of the requested data.
system.tol2bus.snoop_filter.tot_snoops              2                       # Total number of snoops made to the snoop filter.
system.tol2bus.snoop_filter.hit_single_snoops            2                       # Number of snoops hitting in the snoop filter with a single holder of the requested data.
system.tol2bus.snoop_filter.hit_multi_snoops            0                       # Number of snoops hitting in the snoop filter with multiple (>1) holders of the requested data.
system.tol2bus.pwrStateResidencyTicks::UNDEFINED  15267344125                       # Cumulative time (in ticks) in various power states
system.tol2bus.trans_dist::ReadResp           1194900                       # Transaction distribution
system.tol2bus.trans_dist::WritebackDirty      1182908                       # Transaction distribution
system.tol2bus.trans_dist::WritebackClean           44                       # Transaction distribution
system.tol2bus.trans_dist::CleanEvict           23822                       # Transaction distribution
system.tol2bus.trans_dist::ReadExReq             8062                       # Transaction distribution
system.tol2bus.trans_dist::ReadExResp            8062                       # Transaction distribution
system.tol2bus.trans_dist::ReadCleanReq            44                       # Transaction distribution
system.tol2bus.trans_dist::ReadSharedReq      1194856                       # Transaction distribution
system.tol2bus.pkt_count_system.cpu0.icache.mem_side::system.l2.cpu_side          132                       # Packet count per connected master and slave (bytes)
system.tol2bus.pkt_count_system.cpu0.dcache.mem_side::system.l2.cpu_side      3608754                       # Packet count per connected master and slave (bytes)
system.tol2bus.pkt_count::total               3608886                       # Packet count per connected master and slave (bytes)
system.tol2bus.pkt_size_system.cpu0.icache.mem_side::system.l2.cpu_side         5632                       # Cumulative packet size per connected master and slave (bytes)
system.tol2bus.pkt_size_system.cpu0.dcache.mem_side::system.l2.cpu_side    152635520                       # Cumulative packet size per connected master and slave (bytes)
system.tol2bus.pkt_size::total              152641152                       # Cumulative packet size per connected master and slave (bytes)
system.tol2bus.snoops                            3812                       # Total snoops (count)
system.tol2bus.snoopTraffic                     57344                       # Total snoop traffic (bytes)
system.tol2bus.snoop_fanout::samples          1206774                       # Request fanout histogram
system.tol2bus.snoop_fanout::mean            0.002777                       # Request fanout histogram
system.tol2bus.snoop_fanout::stdev           0.052622                       # Request fanout histogram
system.tol2bus.snoop_fanout::underflows             0      0.00%      0.00% # Request fanout histogram
system.tol2bus.snoop_fanout::0                1203423     99.72%     99.72% # Request fanout histogram
system.tol2bus.snoop_fanout::1                   3351      0.28%    100.00% # Request fanout histogram
system.tol2bus.snoop_fanout::2                      0      0.00%    100.00% # Request fanout histogram
system.tol2bus.snoop_fanout::3                      0      0.00%    100.00% # Request fanout histogram
system.tol2bus.snoop_fanout::4                      0      0.00%    100.00% # Request fanout histogram
system.tol2bus.snoop_fanout::5                      0      0.00%    100.00% # Request fanout histogram
system.tol2bus.snoop_fanout::6                      0      0.00%    100.00% # Request fanout histogram
system.tol2bus.snoop_fanout::7                      0      0.00%    100.00% # Request fanout histogram
system.tol2bus.snoop_fanout::8                      0      0.00%    100.00% # Request fanout histogram
system.tol2bus.snoop_fanout::9                      0      0.00%    100.00% # Request fanout histogram
system.tol2bus.snoop_fanout::10                     0      0.00%    100.00% # Request fanout histogram
system.tol2bus.snoop_fanout::11                     0      0.00%    100.00% # Request fanout histogram
system.tol2bus.snoop_fanout::12                     0      0.00%    100.00% # Request fanout histogram
system.tol2bus.snoop_fanout::13                     0      0.00%    100.00% # Request fanout histogram
system.tol2bus.snoop_fanout::14                     0      0.00%    100.00% # Request fanout histogram
system.tol2bus.snoop_fanout::15                     0      0.00%    100.00% # Request fanout histogram
system.tol2bus.snoop_fanout::16                     0      0.00%    100.00% # Request fanout histogram
system.tol2bus.snoop_fanout::17                     0      0.00%    100.00% # Request fanout histogram
system.tol2bus.snoop_fanout::18                     0      0.00%    100.00% # Request fanout histogram
system.tol2bus.snoop_fanout::19                     0      0.00%    100.00% # Request fanout histogram
system.tol2bus.snoop_fanout::20                     0      0.00%    100.00% # Request fanout histogram
system.tol2bus.snoop_fanout::21                     0      0.00%    100.00% # Request fanout histogram
system.tol2bus.snoop_fanout::22                     0      0.00%    100.00% # Request fanout histogram
system.tol2bus.snoop_fanout::23                     0      0.00%    100.00% # Request fanout histogram
system.tol2bus.snoop_fanout::24                     0      0.00%    100.00% # Request fanout histogram
system.tol2bus.snoop_fanout::overflows              0      0.00%    100.00% # Request fanout histogram
system.tol2bus.snoop_fanout::min_value              0                       # Request fanout histogram
system.tol2bus.snoop_fanout::max_value              1                       # Request fanout histogram
system.tol2bus.snoop_fanout::total            1206774                       # Request fanout histogram
system.tol2bus.reqLayer0.occupancy         2385018000                       # Layer occupancy (ticks)
system.tol2bus.reqLayer0.utilization             15.6                       # Layer utilization (%)
system.tol2bus.respLayer0.occupancy             66000                       # Layer occupancy (ticks)
system.tol2bus.respLayer0.utilization             0.0                       # Layer utilization (%)
system.tol2bus.respLayer1.occupancy        1804377000                       # Layer occupancy (ticks)
system.tol2bus.respLayer1.utilization            11.8                       # Layer utilization (%)

---------- End Simulation Statistics   ----------
