
---------- Begin Simulation Statistics ----------
sim_seconds                                  0.015267                       # Number of seconds simulated
sim_ticks                                 15267344125                       # Number of ticks simulated
final_tick                               4458064484500                       # Number of ticks from beginning of simulation (restored from checkpoints and never reset)
sim_freq                                 1000000000000                       # Frequency of simulated ticks
host_inst_rate                               56542688                       # Simulator instruction rate (inst/s)
host_op_rate                                105451370                       # Simulator op (including micro ops) rate (op/s)
host_tick_rate                              141903711                       # Simulator tick rate (ticks/s)
host_mem_usage                                3428952                       # Number of bytes of host memory used
host_seconds                                   107.59                       # Real time elapsed on the host
sim_insts                                  6083395402                       # Number of instructions simulated
sim_ops                                   11345454465                       # Number of ops (including micro ops) simulated
system.voltage_domain.voltage                       1                       # Voltage in Volts
system.clk_domain.clock                          1000                       # Clock period in ticks
system.mem_ctrls.pwrStateResidencyTicks::UNDEFINED  15267344125                       # Cumulative time (in ticks) in various power states
system.mem_ctrls.bytes_read::cpu0.inst             64                       # Number of bytes read from this memory
system.mem_ctrls.bytes_read::cpu0.data        8241664                       # Number of bytes read from this memory
system.mem_ctrls.bytes_read::total            8241728                       # Number of bytes read from this memory
system.mem_ctrls.bytes_inst_read::cpu0.inst           64                       # Number of instructions bytes read from this memory
system.mem_ctrls.bytes_inst_read::total            64                       # Number of instructions bytes read from this memory
system.mem_ctrls.bytes_written::writebacks        34176                       # Number of bytes written to this memory
system.mem_ctrls.bytes_written::total           34176                       # Number of bytes written to this memory
system.mem_ctrls.num_reads::cpu0.inst               1                       # Number of read requests responded to by this memory
system.mem_ctrls.num_reads::cpu0.data          128776                       # Number of read requests responded to by this memory
system.mem_ctrls.num_reads::total              128777                       # Number of read requests responded to by this memory
system.mem_ctrls.num_writes::writebacks           534                       # Number of write requests responded to by this memory
system.mem_ctrls.num_writes::total                534                       # Number of write requests responded to by this memory
system.mem_ctrls.bw_read::cpu0.inst              4192                       # Total read bandwidth from this memory (bytes/s)
system.mem_ctrls.bw_read::cpu0.data         539823032                       # Total read bandwidth from this memory (bytes/s)
system.mem_ctrls.bw_read::total             539827224                       # Total read bandwidth from this memory (bytes/s)
system.mem_ctrls.bw_inst_read::cpu0.inst         4192                       # Instruction read bandwidth from this memory (bytes/s)
system.mem_ctrls.bw_inst_read::total             4192                       # Instruction read bandwidth from this memory (bytes/s)
system.mem_ctrls.bw_write::writebacks         2238503                       # Write bandwidth from this memory (bytes/s)
system.mem_ctrls.bw_write::total              2238503                       # Write bandwidth from this memory (bytes/s)
system.mem_ctrls.bw_total::writebacks         2238503                       # Total bandwidth to/from this memory (bytes/s)
system.mem_ctrls.bw_total::cpu0.inst             4192                       # Total bandwidth to/from this memory (bytes/s)
system.mem_ctrls.bw_total::cpu0.data        539823032                       # Total bandwidth to/from this memory (bytes/s)
system.mem_ctrls.bw_total::total            542065727                       # Total bandwidth to/from this memory (bytes/s)
system.mem_ctrls.readReqs                      128777                       # Number of read requests accepted
system.mem_ctrls.writeReqs                        534                       # Number of write requests accepted
system.mem_ctrls.readBursts                    128777                       # Number of DRAM read bursts, including those serviced by the write queue
system.mem_ctrls.writeBursts                      534                       # Number of DRAM write bursts, including those merged in the write queue
system.mem_ctrls.bytesReadDRAM                8235712                       # Total number of bytes read from DRAM
system.mem_ctrls.bytesReadWrQ                    6016                       # Total number of bytes read from write queue
system.mem_ctrls.bytesWritten                   34048                       # Total number of bytes written to DRAM
system.mem_ctrls.bytesReadSys                 8241728                       # Total read bytes from the system interface side
system.mem_ctrls.bytesWrittenSys                34176                       # Total written bytes from the system interface side
system.mem_ctrls.servicedByWrQ                     94                       # Number of DRAM read bursts serviced by the write queue
system.mem_ctrls.mergedWrBursts                     0                       # Number of DRAM write bursts merged with an existing one
system.mem_ctrls.neitherReadNorWriteReqs            0                       # Number of requests that are neither read nor write
system.mem_ctrls.perBankRdBursts::0              7743                       # Per bank write bursts
system.mem_ctrls.perBankRdBursts::1              7856                       # Per bank write bursts
system.mem_ctrls.perBankRdBursts::2              7651                       # Per bank write bursts
system.mem_ctrls.perBankRdBursts::3              7744                       # Per bank write bursts
system.mem_ctrls.perBankRdBursts::4              7808                       # Per bank write bursts
system.mem_ctrls.perBankRdBursts::5              7996                       # Per bank write bursts
system.mem_ctrls.perBankRdBursts::6              7641                       # Per bank write bursts
system.mem_ctrls.perBankRdBursts::7              7937                       # Per bank write bursts
system.mem_ctrls.perBankRdBursts::8              7876                       # Per bank write bursts
system.mem_ctrls.perBankRdBursts::9              7925                       # Per bank write bursts
system.mem_ctrls.perBankRdBursts::10             8255                       # Per bank write bursts
system.mem_ctrls.perBankRdBursts::11             7908                       # Per bank write bursts
system.mem_ctrls.perBankRdBursts::12             8690                       # Per bank write bursts
system.mem_ctrls.perBankRdBursts::13             8905                       # Per bank write bursts
system.mem_ctrls.perBankRdBursts::14             8428                       # Per bank write bursts
system.mem_ctrls.perBankRdBursts::15             8320                       # Per bank write bursts
system.mem_ctrls.perBankWrBursts::0                 0                       # Per bank write bursts
system.mem_ctrls.perBankWrBursts::1                 0                       # Per bank write bursts
system.mem_ctrls.perBankWrBursts::2                 0                       # Per bank write bursts
system.mem_ctrls.perBankWrBursts::3                 0                       # Per bank write bursts
system.mem_ctrls.perBankWrBursts::4                14                       # Per bank write bursts
system.mem_ctrls.perBankWrBursts::5                39                       # Per bank write bursts
system.mem_ctrls.perBankWrBursts::6                 3                       # Per bank write bursts
system.mem_ctrls.perBankWrBursts::7                27                       # Per bank write bursts
system.mem_ctrls.perBankWrBursts::8                18                       # Per bank write bursts
system.mem_ctrls.perBankWrBursts::9                38                       # Per bank write bursts
system.mem_ctrls.perBankWrBursts::10               70                       # Per bank write bursts
system.mem_ctrls.perBankWrBursts::11              103                       # Per bank write bursts
system.mem_ctrls.perBankWrBursts::12              131                       # Per bank write bursts
system.mem_ctrls.perBankWrBursts::13               73                       # Per bank write bursts
system.mem_ctrls.perBankWrBursts::14               16                       # Per bank write bursts
system.mem_ctrls.perBankWrBursts::15                0                       # Per bank write bursts
system.mem_ctrls.numRdRetry                         0                       # Number of times read queue was full causing retry
system.mem_ctrls.numWrRetry                         0                       # Number of times write queue was full causing retry
system.mem_ctrls.totGap                   15267266500                       # Total gap between requests
system.mem_ctrls.readPktSize::0                     0                       # Read request sizes (log2)
system.mem_ctrls.readPktSize::1                     0                       # Read request sizes (log2)
system.mem_ctrls.readPktSize::2                     0                       # Read request sizes (log2)
system.mem_ctrls.readPktSize::3                     0                       # Read request sizes (log2)
system.mem_ctrls.readPktSize::4                     0                       # Read request sizes (log2)
system.mem_ctrls.readPktSize::5                     0                       # Read request sizes (log2)
system.mem_ctrls.readPktSize::6                128777                       # Read request sizes (log2)
system.mem_ctrls.writePktSize::0                    0                       # Write request sizes (log2)
system.mem_ctrls.writePktSize::1                    0                       # Write request sizes (log2)
system.mem_ctrls.writePktSize::2                    0                       # Write request sizes (log2)
system.mem_ctrls.writePktSize::3                    0                       # Write request sizes (log2)
system.mem_ctrls.writePktSize::4                    0                       # Write request sizes (log2)
system.mem_ctrls.writePktSize::5                    0                       # Write request sizes (log2)
system.mem_ctrls.writePktSize::6                  534                       # Write request sizes (log2)
system.mem_ctrls.rdQLenPdf::0                  102576                       # What read queue length does an incoming req see
system.mem_ctrls.rdQLenPdf::1                   24112                       # What read queue length does an incoming req see
system.mem_ctrls.rdQLenPdf::2                    1894                       # What read queue length does an incoming req see
system.mem_ctrls.rdQLenPdf::3                     101                       # What read queue length does an incoming req see
system.mem_ctrls.rdQLenPdf::4                       0                       # What read queue length does an incoming req see
system.mem_ctrls.rdQLenPdf::5                       0                       # What read queue length does an incoming req see
system.mem_ctrls.rdQLenPdf::6                       0                       # What read queue length does an incoming req see
system.mem_ctrls.rdQLenPdf::7                       0                       # What read queue length does an incoming req see
system.mem_ctrls.rdQLenPdf::8                       0                       # What read queue length does an incoming req see
system.mem_ctrls.rdQLenPdf::9                       0                       # What read queue length does an incoming req see
system.mem_ctrls.rdQLenPdf::10                      0                       # What read queue length does an incoming req see
system.mem_ctrls.rdQLenPdf::11                      0                       # What read queue length does an incoming req see
system.mem_ctrls.rdQLenPdf::12                      0                       # What read queue length does an incoming req see
system.mem_ctrls.rdQLenPdf::13                      0                       # What read queue length does an incoming req see
system.mem_ctrls.rdQLenPdf::14                      0                       # What read queue length does an incoming req see
system.mem_ctrls.rdQLenPdf::15                      0                       # What read queue length does an incoming req see
system.mem_ctrls.rdQLenPdf::16                      0                       # What read queue length does an incoming req see
system.mem_ctrls.rdQLenPdf::17                      0                       # What read queue length does an incoming req see
system.mem_ctrls.rdQLenPdf::18                      0                       # What read queue length does an incoming req see
system.mem_ctrls.rdQLenPdf::19                      0                       # What read queue length does an incoming req see
system.mem_ctrls.rdQLenPdf::20                      0                       # What read queue length does an incoming req see
system.mem_ctrls.rdQLenPdf::21                      0                       # What read queue length does an incoming req see
system.mem_ctrls.rdQLenPdf::22                      0                       # What read queue length does an incoming req see
system.mem_ctrls.rdQLenPdf::23                      0                       # What read queue length does an incoming req see
system.mem_ctrls.rdQLenPdf::24                      0                       # What read queue length does an incoming req see
system.mem_ctrls.rdQLenPdf::25                      0                       # What read queue length does an incoming req see
system.mem_ctrls.rdQLenPdf::26                      0                       # What read queue length does an incoming req see
system.mem_ctrls.rdQLenPdf::27                      0                       # What read queue length does an incoming req see
system.mem_ctrls.rdQLenPdf::28                      0                       # What read queue length does an incoming req see
system.mem_ctrls.rdQLenPdf::29                      0                       # What read queue length does an incoming req see
system.mem_ctrls.rdQLenPdf::30                      0                       # What read queue length does an incoming req see
system.mem_ctrls.rdQLenPdf::31                      0                       # What read queue length does an incoming req see
system.mem_ctrls.wrQLenPdf::0                       0                       # What write queue length does an incoming req see
system.mem_ctrls.wrQLenPdf::1                       0                       # What write queue length does an incoming req see
system.mem_ctrls.wrQLenPdf::2                       0                       # What write queue length does an incoming req see
system.mem_ctrls.wrQLenPdf::3                       0                       # What write queue length does an incoming req see
system.mem_ctrls.wrQLenPdf::4                       0                       # What write queue length does an incoming req see
system.mem_ctrls.wrQLenPdf::5                       0                       # What write queue length does an incoming req see
system.mem_ctrls.wrQLenPdf::6                       0                       # What write queue length does an incoming req see
system.mem_ctrls.wrQLenPdf::7                       0                       # What write queue length does an incoming req see
system.mem_ctrls.wrQLenPdf::8                       0                       # What write queue length does an incoming req see
system.mem_ctrls.wrQLenPdf::9                       0                       # What write queue length does an incoming req see
system.mem_ctrls.wrQLenPdf::10                      0                       # What write queue length does an incoming req see
system.mem_ctrls.wrQLenPdf::11                      0                       # What write queue length does an incoming req see
system.mem_ctrls.wrQLenPdf::12                      0                       # What write queue length does an incoming req see
system.mem_ctrls.wrQLenPdf::13                      0                       # What write queue length does an incoming req see
system.mem_ctrls.wrQLenPdf::14                      0                       # What write queue length does an incoming req see
system.mem_ctrls.wrQLenPdf::15                      2                       # What write queue length does an incoming req see
system.mem_ctrls.wrQLenPdf::16                      2                       # What write queue length does an incoming req see
system.mem_ctrls.wrQLenPdf::17                     33                       # What write queue length does an incoming req see
system.mem_ctrls.wrQLenPdf::18                     34                       # What write queue length does an incoming req see
system.mem_ctrls.wrQLenPdf::19                     34                       # What write queue length does an incoming req see
system.mem_ctrls.wrQLenPdf::20                     33                       # What write queue length does an incoming req see
system.mem_ctrls.wrQLenPdf::21                     33                       # What write queue length does an incoming req see
system.mem_ctrls.wrQLenPdf::22                     33                       # What write queue length does an incoming req see
system.mem_ctrls.wrQLenPdf::23                     33                       # What write queue length does an incoming req see
system.mem_ctrls.wrQLenPdf::24                     33                       # What write queue length does an incoming req see
system.mem_ctrls.wrQLenPdf::25                     33                       # What write queue length does an incoming req see
system.mem_ctrls.wrQLenPdf::26                     33                       # What write queue length does an incoming req see
system.mem_ctrls.wrQLenPdf::27                     33                       # What write queue length does an incoming req see
system.mem_ctrls.wrQLenPdf::28                     33                       # What write queue length does an incoming req see
system.mem_ctrls.wrQLenPdf::29                     33                       # What write queue length does an incoming req see
system.mem_ctrls.wrQLenPdf::30                     33                       # What write queue length does an incoming req see
system.mem_ctrls.wrQLenPdf::31                     33                       # What write queue length does an incoming req see
system.mem_ctrls.wrQLenPdf::32                     33                       # What write queue length does an incoming req see
system.mem_ctrls.wrQLenPdf::33                      0                       # What write queue length does an incoming req see
system.mem_ctrls.wrQLenPdf::34                      0                       # What write queue length does an incoming req see
system.mem_ctrls.wrQLenPdf::35                      0                       # What write queue length does an incoming req see
system.mem_ctrls.wrQLenPdf::36                      0                       # What write queue length does an incoming req see
system.mem_ctrls.wrQLenPdf::37                      0                       # What write queue length does an incoming req see
system.mem_ctrls.wrQLenPdf::38                      0                       # What write queue length does an incoming req see
system.mem_ctrls.wrQLenPdf::39                      0                       # What write queue length does an incoming req see
system.mem_ctrls.wrQLenPdf::40                      0                       # What write queue length does an incoming req see
system.mem_ctrls.wrQLenPdf::41                      0                       # What write queue length does an incoming req see
system.mem_ctrls.wrQLenPdf::42                      0                       # What write queue length does an incoming req see
system.mem_ctrls.wrQLenPdf::43                      0                       # What write queue length does an incoming req see
system.mem_ctrls.wrQLenPdf::44                      0                       # What write queue length does an incoming req see
system.mem_ctrls.wrQLenPdf::45                      0                       # What write queue length does an incoming req see
system.mem_ctrls.wrQLenPdf::46                      0                       # What write queue length does an incoming req see
system.mem_ctrls.wrQLenPdf::47                      0                       # What write queue length does an incoming req see
system.mem_ctrls.wrQLenPdf::48                      0                       # What write queue length does an incoming req see
system.mem_ctrls.wrQLenPdf::49                      0                       # What write queue length does an incoming req see
system.mem_ctrls.wrQLenPdf::50                      0                       # What write queue length does an incoming req see
system.mem_ctrls.wrQLenPdf::51                      0                       # What write queue length does an incoming req see
system.mem_ctrls.wrQLenPdf::52                      0                       # What write queue length does an incoming req see
system.mem_ctrls.wrQLenPdf::53                      0                       # What write queue length does an incoming req see
system.mem_ctrls.wrQLenPdf::54                      0                       # What write queue length does an incoming req see
system.mem_ctrls.wrQLenPdf::55                      0                       # What write queue length does an incoming req see
system.mem_ctrls.wrQLenPdf::56                      0                       # What write queue length does an incoming req see
system.mem_ctrls.wrQLenPdf::57                      0                       # What write queue length does an incoming req see
system.mem_ctrls.wrQLenPdf::58                      0                       # What write queue length does an incoming req see
system.mem_ctrls.wrQLenPdf::59                      0                       # What write queue length does an incoming req see
system.mem_ctrls.wrQLenPdf::60                      0                       # What write queue length does an incoming req see
system.mem_ctrls.wrQLenPdf::61                      0                       # What write queue length does an incoming req see
system.mem_ctrls.wrQLenPdf::62                      0                       # What write queue length does an incoming req see
system.mem_ctrls.wrQLenPdf::63                      0                       # What write queue length does an incoming req see
system.mem_ctrls.bytesPerActivate::samples        83585                       # Bytes accessed per row activation
system.mem_ctrls.bytesPerActivate::mean     98.936795                       # Bytes accessed per row activation
system.mem_ctrls.bytesPerActivate::gmean    87.837975                       # Bytes accessed per row activation
system.mem_ctrls.bytesPerActivate::stdev    57.154689                       # Bytes accessed per row activation
system.mem_ctrls.bytesPerActivate::64-127        53379     63.86%     63.86% # Bytes accessed per row activation
system.mem_ctrls.bytesPerActivate::128-191        19815     23.71%     87.57% # Bytes accessed per row activation
system.mem_ctrls.bytesPerActivate::192-255         6953      8.32%     95.89% # Bytes accessed per row activation
system.mem_ctrls.bytesPerActivate::256-319         2387      2.86%     98.74% # Bytes accessed per row activation
system.mem_ctrls.bytesPerActivate::320-383          720      0.86%     99.60% # Bytes accessed per row activation
system.mem_ctrls.bytesPerActivate::384-447          208      0.25%     99.85% # Bytes accessed per row activation
system.mem_ctrls.bytesPerActivate::448-511           78      0.09%     99.95% # Bytes accessed per row activation
system.mem_ctrls.bytesPerActivate::512-575           23      0.03%     99.97% # Bytes accessed per row activation
system.mem_ctrls.bytesPerActivate::576-639           11      0.01%     99.99% # Bytes accessed per row activation
system.mem_ctrls.bytesPerActivate::640-703            7      0.01%    100.00% # Bytes accessed per row activation
system.mem_ctrls.bytesPerActivate::704-767            1      0.00%    100.00% # Bytes accessed per row activation
system.mem_ctrls.bytesPerActivate::832-895            3      0.00%    100.00% # Bytes accessed per row activation
system.mem_ctrls.bytesPerActivate::total        83585                       # Bytes accessed per row activation
system.mem_ctrls.rdPerTurnAround::samples           33                       # Reads before turning the bus around for writes
system.mem_ctrls.rdPerTurnAround::mean    3893.848485                       # Reads before turning the bus around for writes
system.mem_ctrls.rdPerTurnAround::gmean   3674.017938                       # Reads before turning the bus around for writes
system.mem_ctrls.rdPerTurnAround::stdev   1320.509019                       # Reads before turning the bus around for writes
system.mem_ctrls.rdPerTurnAround::1536-1791            1      3.03%      3.03% # Reads before turning the bus around for writes
system.mem_ctrls.rdPerTurnAround::1792-2047            2      6.06%      9.09% # Reads before turning the bus around for writes
system.mem_ctrls.rdPerTurnAround::2304-2559            3      9.09%     18.18% # Reads before turning the bus around for writes
system.mem_ctrls.rdPerTurnAround::2560-2815            2      6.06%     24.24% # Reads before turning the bus around for writes
system.mem_ctrls.rdPerTurnAround::3072-3327            2      6.06%     30.30% # Reads before turning the bus around for writes
system.mem_ctrls.rdPerTurnAround::3328-3583            6     18.18%     48.48% # Reads before turning the bus around for writes
system.mem_ctrls.rdPerTurnAround::3584-3839            1      3.03%     51.52% # Reads before turning the bus around for writes
system.mem_ctrls.rdPerTurnAround::3840-4095            3      9.09%     60.61% # Reads before turning the bus around for writes
system.mem_ctrls.rdPerTurnAround::4096-4351            1      3.03%     63.64% # Reads before turning the bus around for writes
system.mem_ctrls.rdPerTurnAround::4352-4607            5     15.15%     78.79% # Reads before turning the bus around for writes
system.mem_ctrls.rdPerTurnAround::4608-4863            2      6.06%     84.85% # Reads before turning the bus around for writes
system.mem_ctrls.rdPerTurnAround::5120-5375            1      3.03%     87.88% # Reads before turning the bus around for writes
system.mem_ctrls.rdPerTurnAround::5632-5887            1      3.03%     90.91% # Reads before turning the bus around for writes
system.mem_ctrls.rdPerTurnAround::5888-6143            1      3.03%     93.94% # Reads before turning the bus around for writes
system.mem_ctrls.rdPerTurnAround::6400-6655            1      3.03%     96.97% # Reads before turning the bus around for writes
system.mem_ctrls.rdPerTurnAround::7168-7423            1      3.03%    100.00% # Reads before turning the bus around for writes
system.mem_ctrls.rdPerTurnAround::total            33                       # Reads before turning the bus around for writes
system.mem_ctrls.wrPerTurnAround::samples           33                       # Writes before turning the bus around for reads
system.mem_ctrls.wrPerTurnAround::mean      16.121212                       # Writes before turning the bus around for reads
system.mem_ctrls.wrPerTurnAround::gmean     16.114622                       # Writes before turning the bus around for reads
system.mem_ctrls.wrPerTurnAround::stdev      0.484612                       # Writes before turning the bus around for reads
system.mem_ctrls.wrPerTurnAround::16               31     93.94%     93.94% # Writes before turning the bus around for reads
system.mem_ctrls.wrPerTurnAround::18                2      6.06%    100.00% # Writes before turning the bus around for reads
system.mem_ctrls.wrPerTurnAround::total            33                       # Writes before turning the bus around for reads
system.mem_ctrls.totQLat                   3511479000                       # Total ticks spent queuing
system.mem_ctrls.totMemAccLat              5924285250                       # Total ticks spent from burst creation until serviced by the DRAM
system.mem_ctrls.totBusLat                  643415000                       # Total ticks spent in databus transfers
system.mem_ctrls.avgQLat                     27287.82                       # Average queueing delay per DRAM burst
system.mem_ctrls.avgBusLat                    5000.00                       # Average bus latency per DRAM burst
system.mem_ctrls.avgMemAccLat                46037.82                       # Average memory access latency per DRAM burst
system.mem_ctrls.avgRdBW                       539.43                       # Average DRAM read bandwidth in MiByte/s
system.mem_ctrls.avgWrBW                         2.23                       # Average achieved write bandwidth in MiByte/s
system.mem_ctrls.avgRdBWSys                    539.83                       # Average system read bandwidth in MiByte/s
system.mem_ctrls.avgWrBWSys                      2.24                       # Average system write bandwidth in MiByte/s
system.mem_ctrls.peakBW                      12800.00                       # Theoretical peak bandwidth in MiByte/s
system.mem_ctrls.busUtil                         4.23                       # Data bus utilization in percentage
system.mem_ctrls.busUtilRead                     4.21                       # Data bus utilization in percentage for reads
system.mem_ctrls.busUtilWrite                    0.02                       # Data bus utilization in percentage for writes
system.mem_ctrls.avgRdQLen                       1.20                       # Average read queue length when enqueuing
system.mem_ctrls.avgWrQLen                      25.36                       # Average write queue length when enqueuing
system.mem_ctrls.readRowHits                    45227                       # Number of row buffer hits during reads
system.mem_ctrls.writeRowHits                     404                       # Number of row buffer hits during writes
system.mem_ctrls.readRowHitRate                 35.15                       # Row buffer hit rate for reads
system.mem_ctrls.writeRowHitRate                75.66                       # Row buffer hit rate for writes
system.mem_ctrls.avgGap                     118066.26                       # Average gap between requests
system.mem_ctrls.pageHitRate                    35.31                       # Row buffer hit rate, read and write combined
system.mem_ctrls_0.actEnergy                289762620                       # Energy for activate commands per rank (pJ)
system.mem_ctrls_0.preEnergy                154004895                       # Energy for precharge commands per rank (pJ)
system.mem_ctrls_0.readEnergy               445364640                       # Energy for read commands per rank (pJ)
system.mem_ctrls_0.writeEnergy                 433260                       # Energy for write commands per rank (pJ)
system.mem_ctrls_0.refreshEnergy         1209611520.000000                       # Energy for refresh commands per rank (pJ)
system.mem_ctrls_0.actBackEnergy           1237728780                       # Energy for active background per rank (pJ)
system.mem_ctrls_0.preBackEnergy             27324480                       # Energy for precharge background per rank (pJ)
system.mem_ctrls_0.actPowerDownEnergy      5209860420                       # Energy for active power-down per rank (pJ)
system.mem_ctrls_0.prePowerDownEnergy       353814240                       # Energy for precharge power-down per rank (pJ)
system.mem_ctrls_0.selfRefreshEnergy         47393280                       # Energy for self refresh per rank (pJ)
system.mem_ctrls_0.totalEnergy             8975498655                       # Total energy per rank (pJ)
system.mem_ctrls_0.averagePower            587.888672                       # Core power per rank (mW)
system.mem_ctrls_0.totalIdleTime          12480626875                       # Total Idle time Per DRAM Rank
system.mem_ctrls_0.memoryStateTime::IDLE     17197250                       # Time in different power states
system.mem_ctrls_0.memoryStateTime::REF     511842000                       # Time in different power states
system.mem_ctrls_0.memoryStateTime::SREF    134898750                       # Time in different power states
system.mem_ctrls_0.memoryStateTime::PRE_PDN    921391750                       # Time in different power states
system.mem_ctrls_0.memoryStateTime::ACT    2256891500                       # Time in different power states
system.mem_ctrls_0.memoryStateTime::ACT_PDN  11425122875                       # Time in different power states
system.mem_ctrls_1.actEnergy                307027140                       # Energy for activate commands per rank (pJ)
system.mem_ctrls_1.preEnergy                163200180                       # Energy for precharge commands per rank (pJ)
system.mem_ctrls_1.readEnergy               473431980                       # Energy for read commands per rank (pJ)
system.mem_ctrls_1.writeEnergy                2343780                       # Energy for write commands per rank (pJ)
system.mem_ctrls_1.refreshEnergy         1210226160.000000                       # Energy for refresh commands per rank (pJ)
system.mem_ctrls_1.actBackEnergy           1302630120                       # Energy for active background per rank (pJ)
system.mem_ctrls_1.preBackEnergy             26874720                       # Energy for precharge background per rank (pJ)
system.mem_ctrls_1.actPowerDownEnergy      5205515310                       # Energy for active power-down per rank (pJ)
system.mem_ctrls_1.prePowerDownEnergy       317565120                       # Energy for precharge power-down per rank (pJ)
system.mem_ctrls_1.selfRefreshEnergy         35697180                       # Energy for self refresh per rank (pJ)
system.mem_ctrls_1.totalEnergy             9044617290                       # Total energy per rank (pJ)
system.mem_ctrls_1.averagePower            592.415892                       # Core power per rank (mW)
system.mem_ctrls_1.totalIdleTime          12339987125                       # Total Idle time Per DRAM Rank
system.mem_ctrls_1.memoryStateTime::IDLE     15690500                       # Time in different power states
system.mem_ctrls_1.memoryStateTime::REF     512084000                       # Time in different power states
system.mem_ctrls_1.memoryStateTime::SREF     97877250                       # Time in different power states
system.mem_ctrls_1.memoryStateTime::PRE_PDN    826864750                       # Time in different power states
system.mem_ctrls_1.memoryStateTime::ACT    2399480250                       # Time in different power states
system.mem_ctrls_1.memoryStateTime::ACT_PDN  11415347375                       # Time in different power states
system.pwrStateResidencyTicks::UNDEFINED  15267344125                       # Cumulative time (in ticks) in various power states
system.cpu0.branchPred.lookups                3069652                       # Number of BP lookups
system.cpu0.branchPred.condPredicted          3069652                       # Number of conditional branches predicted
system.cpu0.branchPred.condIncorrect           109435                       # Number of conditional branches incorrect
system.cpu0.branchPred.BTBLookups             2115788                       # Number of BTB lookups
system.cpu0.branchPred.BTBHits                      0                       # Number of BTB hits
system.cpu0.branchPred.BTBCorrect                   0                       # Number of correct BTB predictions (this stat may not work properly.
system.cpu0.branchPred.BTBHitPct             0.000000                       # BTB Hit Percentage
system.cpu0.branchPred.usedRAS                  61770                       # Number of times the RAS was used to get a target.
system.cpu0.branchPred.RASInCorrect              8589                       # Number of incorrect RAS predictions.
system.cpu0.branchPred.indirectLookups        2115788                       # Number of indirect predictor lookups.
system.cpu0.branchPred.indirectHits           1368758                       # Number of indirect target hits.
system.cpu0.branchPred.indirectMisses          747030                       # Number of indirect misses.
system.cpu0.branchPredindirectMispredicted        26203                       # Number of mispredicted indirect branches.
system.cpu_voltage_domain.voltage                   1                       # Voltage in Volts
system.cpu_clk_domain.clock                       500                       # Clock period in ticks
system.cpu0.dtb.walker.pwrStateResidencyTicks::UNDEFINED  15267344125                       # Cumulative time (in ticks) in various power states
system.cpu0.dtb.rdAccesses                    1496693                       # TLB accesses on read requests
system.cpu0.dtb.wrAccesses                      74511                       # TLB accesses on write requests
system.cpu0.dtb.rdMisses                       346219                       # TLB misses on read requests
system.cpu0.dtb.wrMisses                         1294                       # TLB misses on write requests
system.cpu0.apic_clk_domain.clock                8000                       # Clock period in ticks
system.cpu0.interrupts.pwrStateResidencyTicks::UNDEFINED  15267344125                       # Cumulative time (in ticks) in various power states
system.cpu0.itb.walker.pwrStateResidencyTicks::UNDEFINED  15267344125                       # Cumulative time (in ticks) in various power states
system.cpu0.itb.rdAccesses                          0                       # TLB accesses on read requests
system.cpu0.itb.wrAccesses                    2709864                       # TLB accesses on write requests
system.cpu0.itb.rdMisses                            0                       # TLB misses on read requests
system.cpu0.itb.wrMisses                         3669                       # TLB misses on write requests
system.cpu0.workload.numSyscalls                    0                       # Number of system calls
system.cpu0.pwrStateResidencyTicks::ON    15267344125                       # Cumulative time (in ticks) in various power states
system.cpu0.numCycles                        30534689                       # number of cpu cycles simulated
system.cpu0.numWorkItemsStarted                     0                       # number of work items this cpu started
system.cpu0.numWorkItemsCompleted                   0                       # number of work items this cpu completed
system.cpu0.fetch.icacheStallCycles           2758395                       # Number of cycles fetch is stalled on an Icache miss
system.cpu0.fetch.Insts                       8620412                       # Number of instructions fetch has processed
system.cpu0.fetch.Branches                    3069652                       # Number of branches that fetch encountered
system.cpu0.fetch.predictedBranches           1430528                       # Number of branches that fetch has predicted taken
system.cpu0.fetch.Cycles                     27628309                       # Number of cycles fetch has run and was not squashing or blocked
system.cpu0.fetch.SquashCycles                 221402                       # Number of cycles fetch has spent squashing
system.cpu0.fetch.TlbCycles                       640                       # Number of cycles fetch has spent waiting for tlb
system.cpu0.fetch.MiscStallCycles                 890                       # Number of cycles fetch has spent waiting on interrupts, or bad addresses, or out of MSHRs
system.cpu0.fetch.PendingTrapStallCycles        27696                       # Number of stall cycles due to pending traps
system.cpu0.fetch.CacheLines                  2706195                       # Number of cache lines fetched
system.cpu0.fetch.IcacheSquashes                14805                       # Number of outstanding Icache misses that were squashed
system.cpu0.fetch.ItlbSquashes                     12                       # Number of outstanding ITLB misses that were squashed
system.cpu0.fetch.rateDist::samples          30526631                       # Number of instructions fetched each cycle (Total)
system.cpu0.fetch.rateDist::mean             0.566207                       # Number of instructions fetched each cycle (Total)
system.cpu0.fetch.rateDist::stdev            1.845876                       # Number of instructions fetched each cycle (Total)
system.cpu0.fetch.rateDist::underflows              0      0.00%      0.00% # Number of instructions fetched each cycle (Total)
system.cpu0.fetch.rateDist::0                27093894     88.75%     88.75% # Number of instructions fetched each cycle (Total)
system.cpu0.fetch.rateDist::1                   20166      0.07%     88.82% # Number of instructions fetched each cycle (Total)
system.cpu0.fetch.rateDist::2                 1385334      4.54%     93.36% # Number of instructions fetched each cycle (Total)
system.cpu0.fetch.rateDist::3                   34588      0.11%     93.47% # Number of instructions fetched each cycle (Total)
system.cpu0.fetch.rateDist::4                  235567      0.77%     94.24% # Number of instructions fetched each cycle (Total)
system.cpu0.fetch.rateDist::5                   86981      0.28%     94.53% # Number of instructions fetched each cycle (Total)
system.cpu0.fetch.rateDist::6                  159370      0.52%     95.05% # Number of instructions fetched each cycle (Total)
system.cpu0.fetch.rateDist::7                   29458      0.10%     95.15% # Number of instructions fetched each cycle (Total)
system.cpu0.fetch.rateDist::8                 1481273      4.85%    100.00% # Number of instructions fetched each cycle (Total)
system.cpu0.fetch.rateDist::overflows               0      0.00%    100.00% # Number of instructions fetched each cycle (Total)
system.cpu0.fetch.rateDist::min_value               0                       # Number of instructions fetched each cycle (Total)
system.cpu0.fetch.rateDist::max_value               8                       # Number of instructions fetched each cycle (Total)
system.cpu0.fetch.rateDist::total            30526631                       # Number of instructions fetched each cycle (Total)
system.cpu0.fetch.branchRate                 0.100530                       # Number of branch fetches per cycle
system.cpu0.fetch.rate                       0.282315                       # Number of inst fetches per cycle
system.cpu0.decode.IdleCycles                 1334417                       # Number of cycles decode is idle
system.cpu0.decode.BlockedCycles             26817422                       # Number of cycles decode is blocked
system.cpu0.decode.RunCycles                  1652511                       # Number of cycles decode is running
system.cpu0.decode.UnblockCycles               611580                       # Number of cycles decode is unblocking
system.cpu0.decode.SquashCycles                110701                       # Number of cycles decode is squashing
system.cpu0.decode.DecodedInsts              14536937                       # Number of instructions handled by decode
system.cpu0.rename.SquashCycles                110701                       # Number of cycles rename is squashing
system.cpu0.rename.IdleCycles                 1536665                       # Number of cycles rename is idle
system.cpu0.rename.BlockCycles               24565776                       # Number of cycles rename is blocking
system.cpu0.rename.serializeStallCycles         23962                       # count of cycles rename stalled for serializing inst
system.cpu0.rename.RunCycles                  1931166                       # Number of cycles rename is running
system.cpu0.rename.UnblockCycles              2358361                       # Number of cycles rename is unblocking
system.cpu0.rename.RenamedInsts              14025414                       # Number of instructions processed by rename
system.cpu0.rename.ROBFullEvents                64581                       # Number of times rename has blocked due to ROB full
system.cpu0.rename.IQFullEvents               2042124                       # Number of times rename has blocked due to IQ full
system.cpu0.rename.LQFullEvents                216983                       # Number of times rename has blocked due to LQ full
system.cpu0.rename.SQFullEvents                  8985                       # Number of times rename has blocked due to SQ full
system.cpu0.rename.RenamedOperands           16773017                       # Number of destination operands rename has renamed
system.cpu0.rename.RenameLookups             39566155                       # Number of register rename lookups that rename has made
system.cpu0.rename.int_rename_lookups        18095814                       # Number of integer rename lookups
system.cpu0.rename.fp_rename_lookups            62717                       # Number of floating rename lookups
system.cpu0.rename.CommittedMaps              6702055                       # Number of HB maps that are committed
system.cpu0.rename.UndoneMaps                10070964                       # Number of HB maps that are undone due to squashing
system.cpu0.rename.serializingInsts               371                       # count of serializing insts renamed
system.cpu0.rename.tempSerializingInsts           443                       # count of temporary serializing insts renamed
system.cpu0.rename.skidInsts                  3921407                       # count of insts added to the skid buffer
system.cpu0.memDep0.insertedLoads             2615174                       # Number of loads inserted to the mem dependence unit.
system.cpu0.memDep0.insertedStores             103901                       # Number of stores inserted to the mem dependence unit.
system.cpu0.memDep0.conflictingLoads             6923                       # Number of conflicting loads.
system.cpu0.memDep0.conflictingStores            5872                       # Number of conflicting stores.
system.cpu0.iq.iqInstsAdded                  13443948                       # Number of instructions added to the IQ (excludes non-spec)
system.cpu0.iq.iqNonSpecInstsAdded               5040                       # Number of non-speculative instructions added to the IQ
system.cpu0.iq.iqInstsIssued                  9694042                       # Number of instructions issued
system.cpu0.iq.iqSquashedInstsIssued             9993                       # Number of squashed instructions issued
system.cpu0.iq.iqSquashedInstsExamined        7852874                       # Number of squashed instructions iterated over during squash; mainly for profiling
system.cpu0.iq.iqSquashedOperandsExamined     17359454                       # Number of squashed operands that are examined and possibly removed from graph
system.cpu0.iq.iqSquashedNonSpecRemoved          5040                       # Number of squashed non-spec instructions that were removed
system.cpu0.iq.issued_per_cycle::samples     30526631                       # Number of insts issued each cycle
system.cpu0.iq.issued_per_cycle::mean        0.317560                       # Number of insts issued each cycle
system.cpu0.iq.issued_per_cycle::stdev       0.992702                       # Number of insts issued each cycle
system.cpu0.iq.issued_per_cycle::underflows            0      0.00%      0.00% # Number of insts issued each cycle
system.cpu0.iq.issued_per_cycle::0           26508987     86.84%     86.84% # Number of insts issued each cycle
system.cpu0.iq.issued_per_cycle::1            1570919      5.15%     91.98% # Number of insts issued each cycle
system.cpu0.iq.issued_per_cycle::2             879367      2.88%     94.87% # Number of insts issued each cycle
system.cpu0.iq.issued_per_cycle::3             603500      1.98%     96.84% # Number of insts issued each cycle
system.cpu0.iq.issued_per_cycle::4             584732      1.92%     98.76% # Number of insts issued each cycle
system.cpu0.iq.issued_per_cycle::5             172765      0.57%     99.32% # Number of insts issued each cycle
system.cpu0.iq.issued_per_cycle::6             127792      0.42%     99.74% # Number of insts issued each cycle
system.cpu0.iq.issued_per_cycle::7              44168      0.14%     99.89% # Number of insts issued each cycle
system.cpu0.iq.issued_per_cycle::8              34401      0.11%    100.00% # Number of insts issued each cycle
system.cpu0.iq.issued_per_cycle::overflows            0      0.00%    100.00% # Number of insts issued each cycle
system.cpu0.iq.issued_per_cycle::min_value            0                       # Number of insts issued each cycle
system.cpu0.iq.issued_per_cycle::max_value            8                       # Number of insts issued each cycle
system.cpu0.iq.issued_per_cycle::total       30526631                       # Number of insts issued each cycle
system.cpu0.iq.fu_full::No_OpClass                  0      0.00%      0.00% # attempts to use FU when none available
system.cpu0.iq.fu_full::IntAlu                  18155     70.62%     70.62% # attempts to use FU when none available
system.cpu0.iq.fu_full::IntMult                     0      0.00%     70.62% # attempts to use FU when none available
system.cpu0.iq.fu_full::IntDiv                      0      0.00%     70.62% # attempts to use FU when none available
system.cpu0.iq.fu_full::FloatAdd                 1851      7.20%     77.82% # attempts to use FU when none available
system.cpu0.iq.fu_full::FloatCmp                    0      0.00%     77.82% # attempts to use FU when none available
system.cpu0.iq.fu_full::FloatCvt                    0      0.00%     77.82% # attempts to use FU when none available
system.cpu0.iq.fu_full::FloatMult                   0      0.00%     77.82% # attempts to use FU when none available
system.cpu0.iq.fu_full::FloatMultAcc                0      0.00%     77.82% # attempts to use FU when none available
system.cpu0.iq.fu_full::FloatDiv                    0      0.00%     77.82% # attempts to use FU when none available
system.cpu0.iq.fu_full::FloatMisc                   0      0.00%     77.82% # attempts to use FU when none available
system.cpu0.iq.fu_full::FloatSqrt                   0      0.00%     77.82% # attempts to use FU when none available
system.cpu0.iq.fu_full::SimdAdd                     0      0.00%     77.82% # attempts to use FU when none available
system.cpu0.iq.fu_full::SimdAddAcc                  0      0.00%     77.82% # attempts to use FU when none available
system.cpu0.iq.fu_full::SimdAlu                     0      0.00%     77.82% # attempts to use FU when none available
system.cpu0.iq.fu_full::SimdCmp                     0      0.00%     77.82% # attempts to use FU when none available
system.cpu0.iq.fu_full::SimdCvt                     0      0.00%     77.82% # attempts to use FU when none available
system.cpu0.iq.fu_full::SimdMisc                    0      0.00%     77.82% # attempts to use FU when none available
system.cpu0.iq.fu_full::SimdMult                    0      0.00%     77.82% # attempts to use FU when none available
system.cpu0.iq.fu_full::SimdMultAcc                 0      0.00%     77.82% # attempts to use FU when none available
system.cpu0.iq.fu_full::SimdShift                   0      0.00%     77.82% # attempts to use FU when none available
system.cpu0.iq.fu_full::SimdShiftAcc                0      0.00%     77.82% # attempts to use FU when none available
system.cpu0.iq.fu_full::SimdSqrt                    0      0.00%     77.82% # attempts to use FU when none available
system.cpu0.iq.fu_full::SimdFloatAdd                0      0.00%     77.82% # attempts to use FU when none available
system.cpu0.iq.fu_full::SimdFloatAlu                0      0.00%     77.82% # attempts to use FU when none available
system.cpu0.iq.fu_full::SimdFloatCmp                0      0.00%     77.82% # attempts to use FU when none available
system.cpu0.iq.fu_full::SimdFloatCvt                0      0.00%     77.82% # attempts to use FU when none available
system.cpu0.iq.fu_full::SimdFloatDiv                0      0.00%     77.82% # attempts to use FU when none available
system.cpu0.iq.fu_full::SimdFloatMisc               0      0.00%     77.82% # attempts to use FU when none available
system.cpu0.iq.fu_full::SimdFloatMult               0      0.00%     77.82% # attempts to use FU when none available
system.cpu0.iq.fu_full::SimdFloatMultAcc            0      0.00%     77.82% # attempts to use FU when none available
system.cpu0.iq.fu_full::SimdFloatSqrt               0      0.00%     77.82% # attempts to use FU when none available
system.cpu0.iq.fu_full::MemRead                  5071     19.73%     97.55% # attempts to use FU when none available
system.cpu0.iq.fu_full::MemWrite                  420      1.63%     99.18% # attempts to use FU when none available
system.cpu0.iq.fu_full::FloatMemRead              141      0.55%     99.73% # attempts to use FU when none available
system.cpu0.iq.fu_full::FloatMemWrite              70      0.27%    100.00% # attempts to use FU when none available
system.cpu0.iq.fu_full::IprAccess                   0      0.00%    100.00% # attempts to use FU when none available
system.cpu0.iq.fu_full::InstPrefetch                0      0.00%    100.00% # attempts to use FU when none available
system.cpu0.iq.FU_type_0::No_OpClass            21001      0.22%      0.22% # Type of FU issued
system.cpu0.iq.FU_type_0::IntAlu              7991783     82.44%     82.66% # Type of FU issued
system.cpu0.iq.FU_type_0::IntMult                1021      0.01%     82.67% # Type of FU issued
system.cpu0.iq.FU_type_0::IntDiv                15112      0.16%     82.82% # Type of FU issued
system.cpu0.iq.FU_type_0::FloatAdd              23603      0.24%     83.07% # Type of FU issued
system.cpu0.iq.FU_type_0::FloatCmp                  0      0.00%     83.07% # Type of FU issued
system.cpu0.iq.FU_type_0::FloatCvt                  0      0.00%     83.07% # Type of FU issued
system.cpu0.iq.FU_type_0::FloatMult                 0      0.00%     83.07% # Type of FU issued
system.cpu0.iq.FU_type_0::FloatMultAcc              0      0.00%     83.07% # Type of FU issued
system.cpu0.iq.FU_type_0::FloatDiv                  0      0.00%     83.07% # Type of FU issued
system.cpu0.iq.FU_type_0::FloatMisc                 0      0.00%     83.07% # Type of FU issued
system.cpu0.iq.FU_type_0::FloatSqrt                 0      0.00%     83.07% # Type of FU issued
system.cpu0.iq.FU_type_0::SimdAdd                   0      0.00%     83.07% # Type of FU issued
system.cpu0.iq.FU_type_0::SimdAddAcc                0      0.00%     83.07% # Type of FU issued
system.cpu0.iq.FU_type_0::SimdAlu                   0      0.00%     83.07% # Type of FU issued
system.cpu0.iq.FU_type_0::SimdCmp                   0      0.00%     83.07% # Type of FU issued
system.cpu0.iq.FU_type_0::SimdCvt                   0      0.00%     83.07% # Type of FU issued
system.cpu0.iq.FU_type_0::SimdMisc                  0      0.00%     83.07% # Type of FU issued
system.cpu0.iq.FU_type_0::SimdMult                  0      0.00%     83.07% # Type of FU issued
system.cpu0.iq.FU_type_0::SimdMultAcc               0      0.00%     83.07% # Type of FU issued
system.cpu0.iq.FU_type_0::SimdShift                 0      0.00%     83.07% # Type of FU issued
system.cpu0.iq.FU_type_0::SimdShiftAcc              0      0.00%     83.07% # Type of FU issued
system.cpu0.iq.FU_type_0::SimdSqrt                  0      0.00%     83.07% # Type of FU issued
system.cpu0.iq.FU_type_0::SimdFloatAdd              0      0.00%     83.07% # Type of FU issued
system.cpu0.iq.FU_type_0::SimdFloatAlu              0      0.00%     83.07% # Type of FU issued
system.cpu0.iq.FU_type_0::SimdFloatCmp              0      0.00%     83.07% # Type of FU issued
system.cpu0.iq.FU_type_0::SimdFloatCvt              0      0.00%     83.07% # Type of FU issued
system.cpu0.iq.FU_type_0::SimdFloatDiv              0      0.00%     83.07% # Type of FU issued
system.cpu0.iq.FU_type_0::SimdFloatMisc             0      0.00%     83.07% # Type of FU issued
system.cpu0.iq.FU_type_0::SimdFloatMult             0      0.00%     83.07% # Type of FU issued
system.cpu0.iq.FU_type_0::SimdFloatMultAcc            0      0.00%     83.07% # Type of FU issued
system.cpu0.iq.FU_type_0::SimdFloatSqrt             0      0.00%     83.07% # Type of FU issued
system.cpu0.iq.FU_type_0::MemRead             1558313     16.07%     99.14% # Type of FU issued
system.cpu0.iq.FU_type_0::MemWrite              79119      0.82%     99.96% # Type of FU issued
system.cpu0.iq.FU_type_0::FloatMemRead           3821      0.04%    100.00% # Type of FU issued
system.cpu0.iq.FU_type_0::FloatMemWrite           269      0.00%    100.00% # Type of FU issued
system.cpu0.iq.FU_type_0::IprAccess                 0      0.00%    100.00% # Type of FU issued
system.cpu0.iq.FU_type_0::InstPrefetch              0      0.00%    100.00% # Type of FU issued
system.cpu0.iq.FU_type_0::total               9694042                       # Type of FU issued
system.cpu0.iq.rate                          0.317476                       # Inst issue rate
system.cpu0.iq.fu_busy_cnt                      25708                       # FU busy when requested
system.cpu0.iq.fu_busy_rate                  0.002652                       # FU busy rate (busy events/executed inst)
system.cpu0.iq.int_inst_queue_reads          49892539                       # Number of integer instruction queue reads
system.cpu0.iq.int_inst_queue_writes         21249237                       # Number of integer instruction queue writes
system.cpu0.iq.int_inst_queue_wakeup_accesses      9349441                       # Number of integer instruction queue wakeup accesses
system.cpu0.iq.fp_inst_queue_reads              57876                       # Number of floating instruction queue reads
system.cpu0.iq.fp_inst_queue_writes             52630                       # Number of floating instruction queue writes
system.cpu0.iq.fp_inst_queue_wakeup_accesses        25686                       # Number of floating instruction queue wakeup accesses
system.cpu0.iq.vec_inst_queue_reads                 0                       # Number of vector instruction queue reads
system.cpu0.iq.vec_inst_queue_writes                0                       # Number of vector instruction queue writes
system.cpu0.iq.vec_inst_queue_wakeup_accesses            0                       # Number of vector instruction queue wakeup accesses
system.cpu0.iq.int_alu_accesses               9668970                       # Number of integer alu accesses
system.cpu0.iq.fp_alu_accesses                  29779                       # Number of floating point alu accesses
system.cpu0.iq.vec_alu_accesses                     0                       # Number of vector alu accesses
system.cpu0.iew.lsq.thread0.forwLoads            7937                       # Number of loads that had data forwarded from stores
system.cpu0.iew.lsq.thread0.invAddrLoads            0                       # Number of loads ignored due to an invalid address
system.cpu0.iew.lsq.thread0.squashedLoads      1535171                       # Number of loads squashed
system.cpu0.iew.lsq.thread0.ignoredResponses          190                       # Number of memory responses ignored because the instruction is squashed
system.cpu0.iew.lsq.thread0.memOrderViolation            5                       # Number of memory ordering violations
system.cpu0.iew.lsq.thread0.squashedStores        58034                       # Number of stores squashed
system.cpu0.iew.lsq.thread0.invAddrSwpfs            0                       # Number of software prefetches ignored due to an invalid address
system.cpu0.iew.lsq.thread0.blockedLoads            0                       # Number of blocked loads due to partial load-store forwarding
system.cpu0.iew.lsq.thread0.rescheduledLoads           68                       # Number of loads that were rescheduled
system.cpu0.iew.lsq.thread0.cacheBlocked         5286                       # Number of times an access to memory failed due to the cache being blocked
system.cpu0.iew.iewIdleCycles                       0                       # Number of cycles IEW is idle
system.cpu0.iew.iewSquashCycles                110701                       # Number of cycles IEW is squashing
system.cpu0.iew.iewBlockCycles               22210494                       # Number of cycles IEW is blocking
system.cpu0.iew.iewUnblockCycles               414959                       # Number of cycles IEW is unblocking
system.cpu0.iew.iewDispatchedInsts           13448988                       # Number of instructions dispatched to IQ
system.cpu0.iew.iewDispSquashedInsts             5336                       # Number of squashed instructions skipped by dispatch
system.cpu0.iew.iewDispLoadInsts              2615174                       # Number of dispatched load instructions
system.cpu0.iew.iewDispStoreInsts              103901                       # Number of dispatched store instructions
system.cpu0.iew.iewDispNonSpecInsts              1911                       # Number of dispatched non-speculative instructions
system.cpu0.iew.iewIQFullEvents                 26242                       # Number of times the IQ has become full, causing a stall
system.cpu0.iew.iewLSQFullEvents                45455                       # Number of times the LSQ has become full, causing a stall
system.cpu0.iew.memOrderViolationEvents             5                       # Number of memory order violations
system.cpu0.iew.predictedTakenIncorrect         68786                       # Number of branches that were predicted taken incorrectly
system.cpu0.iew.predictedNotTakenIncorrect        51227                       # Number of branches that were predicted not taken incorrectly
system.cpu0.iew.branchMispredicts              120013                       # Number of branch mispredicts detected at execute
system.cpu0.iew.iewExecutedInsts              9546751                       # Number of executed instructions
system.cpu0.iew.iewExecLoadInsts              1496313                       # Number of load instructions executed
system.cpu0.iew.iewExecSquashedInsts           147290                       # Number of squashed instructions skipped in execute
system.cpu0.iew.exec_swp                            0                       # number of swp insts executed
system.cpu0.iew.exec_nop                            0                       # number of nop insts executed
system.cpu0.iew.exec_refs                     1570807                       # number of memory reference insts executed
system.cpu0.iew.exec_branches                 1205009                       # Number of branches executed
system.cpu0.iew.exec_stores                     74494                       # Number of stores executed
system.cpu0.iew.exec_rate                    0.312653                       # Inst execution rate
system.cpu0.iew.wb_sent                       9397124                       # cumulative count of insts sent to commit
system.cpu0.iew.wb_count                      9375127                       # cumulative count of insts written-back
system.cpu0.iew.wb_producers                  6916639                       # num instructions producing a value
system.cpu0.iew.wb_consumers                 11037453                       # num instructions consuming a value
system.cpu0.iew.wb_rate                      0.307032                       # insts written-back per cycle
system.cpu0.iew.wb_fanout                    0.626652                       # average fanout of values written-back
system.cpu0.commit.commitSquashedInsts        7853553                       # The number of squashed insts skipped by commit
system.cpu0.commit.branchMispredicts           110697                       # The number of times a branch was mispredicted
system.cpu0.commit.committed_per_cycle::samples     29442473                       # Number of insts commited each cycle
system.cpu0.commit.committed_per_cycle::mean     0.190070                       # Number of insts commited each cycle
system.cpu0.commit.committed_per_cycle::stdev     0.793219                       # Number of insts commited each cycle
system.cpu0.commit.committed_per_cycle::underflows            0      0.00%      0.00% # Number of insts commited each cycle
system.cpu0.commit.committed_per_cycle::0     27021777     91.78%     91.78% # Number of insts commited each cycle
system.cpu0.commit.committed_per_cycle::1      1109752      3.77%     95.55% # Number of insts commited each cycle
system.cpu0.commit.committed_per_cycle::2       266927      0.91%     96.45% # Number of insts commited each cycle
system.cpu0.commit.committed_per_cycle::3       734853      2.50%     98.95% # Number of insts commited each cycle
system.cpu0.commit.committed_per_cycle::4       117669      0.40%     99.35% # Number of insts commited each cycle
system.cpu0.commit.committed_per_cycle::5        77161      0.26%     99.61% # Number of insts commited each cycle
system.cpu0.commit.committed_per_cycle::6         8258      0.03%     99.64% # Number of insts commited each cycle
system.cpu0.commit.committed_per_cycle::7         6684      0.02%     99.66% # Number of insts commited each cycle
system.cpu0.commit.committed_per_cycle::8        99392      0.34%    100.00% # Number of insts commited each cycle
system.cpu0.commit.committed_per_cycle::overflows            0      0.00%    100.00% # Number of insts commited each cycle
system.cpu0.commit.committed_per_cycle::min_value            0                       # Number of insts commited each cycle
system.cpu0.commit.committed_per_cycle::max_value            8                       # Number of insts commited each cycle
system.cpu0.commit.committed_per_cycle::total     29442473                       # Number of insts commited each cycle
system.cpu0.commit.committedInsts             2800612                       # Number of instructions committed
system.cpu0.commit.committedOps               5596118                       # Number of ops (including micro ops) committed
system.cpu0.commit.swp_count                        0                       # Number of s/w prefetches committed
system.cpu0.commit.refs                       1125872                       # Number of memory references committed
system.cpu0.commit.loads                      1080005                       # Number of loads committed
system.cpu0.commit.membars                          0                       # Number of memory barriers committed
system.cpu0.commit.branches                   1027531                       # Number of branches committed
system.cpu0.commit.vec_insts                        0                       # Number of committed Vector instructions.
system.cpu0.commit.fp_insts                     18304                       # Number of committed floating point instructions.
system.cpu0.commit.int_insts                  5577698                       # Number of committed integer instructions.
system.cpu0.commit.function_calls                8075                       # Number of function calls committed.
system.cpu0.commit.op_class_0::No_OpClass         5428      0.10%      0.10% # Class of committed instruction
system.cpu0.commit.op_class_0::IntAlu         4435856     79.27%     79.36% # Class of committed instruction
system.cpu0.commit.op_class_0::IntMult            323      0.01%     79.37% # Class of committed instruction
system.cpu0.commit.op_class_0::IntDiv           12991      0.23%     79.60% # Class of committed instruction
system.cpu0.commit.op_class_0::FloatAdd         15648      0.28%     79.88% # Class of committed instruction
system.cpu0.commit.op_class_0::FloatCmp             0      0.00%     79.88% # Class of committed instruction
system.cpu0.commit.op_class_0::FloatCvt             0      0.00%     79.88% # Class of committed instruction
system.cpu0.commit.op_class_0::FloatMult            0      0.00%     79.88% # Class of committed instruction
system.cpu0.commit.op_class_0::FloatMultAcc            0      0.00%     79.88% # Class of committed instruction
system.cpu0.commit.op_class_0::FloatDiv             0      0.00%     79.88% # Class of committed instruction
system.cpu0.commit.op_class_0::FloatMisc            0      0.00%     79.88% # Class of committed instruction
system.cpu0.commit.op_class_0::FloatSqrt            0      0.00%     79.88% # Class of committed instruction
system.cpu0.commit.op_class_0::SimdAdd              0      0.00%     79.88% # Class of committed instruction
system.cpu0.commit.op_class_0::SimdAddAcc            0      0.00%     79.88% # Class of committed instruction
system.cpu0.commit.op_class_0::SimdAlu              0      0.00%     79.88% # Class of committed instruction
system.cpu0.commit.op_class_0::SimdCmp              0      0.00%     79.88% # Class of committed instruction
system.cpu0.commit.op_class_0::SimdCvt              0      0.00%     79.88% # Class of committed instruction
system.cpu0.commit.op_class_0::SimdMisc             0      0.00%     79.88% # Class of committed instruction
system.cpu0.commit.op_class_0::SimdMult             0      0.00%     79.88% # Class of committed instruction
system.cpu0.commit.op_class_0::SimdMultAcc            0      0.00%     79.88% # Class of committed instruction
system.cpu0.commit.op_class_0::SimdShift            0      0.00%     79.88% # Class of committed instruction
system.cpu0.commit.op_class_0::SimdShiftAcc            0      0.00%     79.88% # Class of committed instruction
system.cpu0.commit.op_class_0::SimdSqrt             0      0.00%     79.88% # Class of committed instruction
system.cpu0.commit.op_class_0::SimdFloatAdd            0      0.00%     79.88% # Class of committed instruction
system.cpu0.commit.op_class_0::SimdFloatAlu            0      0.00%     79.88% # Class of committed instruction
system.cpu0.commit.op_class_0::SimdFloatCmp            0      0.00%     79.88% # Class of committed instruction
system.cpu0.commit.op_class_0::SimdFloatCvt            0      0.00%     79.88% # Class of committed instruction
system.cpu0.commit.op_class_0::SimdFloatDiv            0      0.00%     79.88% # Class of committed instruction
system.cpu0.commit.op_class_0::SimdFloatMisc            0      0.00%     79.88% # Class of committed instruction
system.cpu0.commit.op_class_0::SimdFloatMult            0      0.00%     79.88% # Class of committed instruction
system.cpu0.commit.op_class_0::SimdFloatMultAcc            0      0.00%     79.88% # Class of committed instruction
system.cpu0.commit.op_class_0::SimdFloatSqrt            0      0.00%     79.88% # Class of committed instruction
system.cpu0.commit.op_class_0::MemRead        1077349     19.25%     99.13% # Class of committed instruction
system.cpu0.commit.op_class_0::MemWrite         45867      0.82%     99.95% # Class of committed instruction
system.cpu0.commit.op_class_0::FloatMemRead         2656      0.05%    100.00% # Class of committed instruction
system.cpu0.commit.op_class_0::FloatMemWrite            0      0.00%    100.00% # Class of committed instruction
system.cpu0.commit.op_class_0::IprAccess            0      0.00%    100.00% # Class of committed instruction
system.cpu0.commit.op_class_0::InstPrefetch            0      0.00%    100.00% # Class of committed instruction
system.cpu0.commit.op_class_0::total          5596118                       # Class of committed instruction
system.cpu0.commit.bw_lim_events                99392                       # number cycles where commit BW limit reached
system.cpu0.rob.rob_reads                    42792752                       # The number of ROB reads
system.cpu0.rob.rob_writes                   27985655                       # The number of ROB writes
system.cpu0.timesIdled                            138                       # Number of times that the entire CPU went into an idle state and unscheduled itself
system.cpu0.idleCycles                           8058                       # Total number of cycles that the CPU has spent unscheduled due to idling
system.cpu0.committedInsts                    2800612                       # Number of Instructions Simulated
system.cpu0.committedOps                      5596118                       # Number of Ops (including micro ops) Simulated
system.cpu0.cpi                             10.902863                       # CPI: Cycles Per Instruction
system.cpu0.cpi_total                       10.902863                       # CPI: Total CPI of All Threads
system.cpu0.ipc                              0.091719                       # IPC: Instructions Per Cycle
system.cpu0.ipc_total                        0.091719                       # IPC: Total IPC of All Threads
system.cpu0.int_regfile_reads                 9417249                       # number of integer regfile reads
system.cpu0.int_regfile_writes                8104931                       # number of integer regfile writes
system.cpu0.fp_regfile_reads                    45961                       # number of floating regfile reads
system.cpu0.fp_regfile_writes                   22924                       # number of floating regfile writes
system.cpu0.cc_regfile_reads                  6490855                       # number of cc regfile reads
system.cpu0.cc_regfile_writes                 2635148                       # number of cc regfile writes
system.cpu0.misc_regfile_reads                5167317                       # number of misc regfile reads
system.cpu0.dcache.tags.pwrStateResidencyTicks::UNDEFINED  15267344125                       # Cumulative time (in ticks) in various power states
system.cpu0.dcache.tags.replacements           579775                       # number of replacements
system.cpu0.dcache.tags.tagsinuse                 512                       # Cycle average of tags in use
system.cpu0.dcache.tags.total_refs             549625                       # Total number of references to valid blocks.
system.cpu0.dcache.tags.sampled_refs           579775                       # Sample count of references to valid blocks.
system.cpu0.dcache.tags.avg_refs             0.947997                       # Average number of references to valid blocks.
system.cpu0.dcache.tags.warmup_cycle                0                       # Cycle when the warmup percentage was hit.
system.cpu0.dcache.tags.occ_blocks::cpu0.data          512                       # Average occupied blocks per requestor
system.cpu0.dcache.tags.occ_percent::cpu0.data            1                       # Average percentage of cache occupancy
system.cpu0.dcache.tags.occ_percent::total            1                       # Average percentage of cache occupancy
system.cpu0.dcache.tags.occ_task_id_blocks::1024          512                       # Occupied blocks per task id
system.cpu0.dcache.tags.age_task_id_blocks_1024::0          179                       # Occupied blocks per task id
system.cpu0.dcache.tags.age_task_id_blocks_1024::1          333                       # Occupied blocks per task id
system.cpu0.dcache.tags.occ_task_id_percent::1024            1                       # Percentage of cache occupancy per task id
system.cpu0.dcache.tags.tag_accesses          6680619                       # Number of tag accesses
system.cpu0.dcache.tags.data_accesses         6680619                       # Number of data accesses
system.cpu0.dcache.pwrStateResidencyTicks::UNDEFINED  15267344125                       # Cumulative time (in ticks) in various power states
system.cpu0.dcache.ReadReq_hits::cpu0.data       505447                       # number of ReadReq hits
system.cpu0.dcache.ReadReq_hits::total         505447                       # number of ReadReq hits
system.cpu0.dcache.WriteReq_hits::cpu0.data        43819                       # number of WriteReq hits
system.cpu0.dcache.WriteReq_hits::total         43819                       # number of WriteReq hits
system.cpu0.dcache.demand_hits::cpu0.data       549266                       # number of demand (read+write) hits
system.cpu0.dcache.demand_hits::total          549266                       # number of demand (read+write) hits
system.cpu0.dcache.overall_hits::cpu0.data       549266                       # number of overall hits
system.cpu0.dcache.overall_hits::total         549266                       # number of overall hits
system.cpu0.dcache.ReadReq_misses::cpu0.data       973897                       # number of ReadReq misses
system.cpu0.dcache.ReadReq_misses::total       973897                       # number of ReadReq misses
system.cpu0.dcache.WriteReq_misses::cpu0.data         2048                       # number of WriteReq misses
system.cpu0.dcache.WriteReq_misses::total         2048                       # number of WriteReq misses
system.cpu0.dcache.demand_misses::cpu0.data       975945                       # number of demand (read+write) misses
system.cpu0.dcache.demand_misses::total        975945                       # number of demand (read+write) misses
system.cpu0.dcache.overall_misses::cpu0.data       975945                       # number of overall misses
system.cpu0.dcache.overall_misses::total       975945                       # number of overall misses
system.cpu0.dcache.ReadReq_miss_latency::cpu0.data  32583595500                       # number of ReadReq miss cycles
system.cpu0.dcache.ReadReq_miss_latency::total  32583595500                       # number of ReadReq miss cycles
system.cpu0.dcache.WriteReq_miss_latency::cpu0.data     74079496                       # number of WriteReq miss cycles
system.cpu0.dcache.WriteReq_miss_latency::total     74079496                       # number of WriteReq miss cycles
system.cpu0.dcache.demand_miss_latency::cpu0.data  32657674996                       # number of demand (read+write) miss cycles
system.cpu0.dcache.demand_miss_latency::total  32657674996                       # number of demand (read+write) miss cycles
system.cpu0.dcache.overall_miss_latency::cpu0.data  32657674996                       # number of overall miss cycles
system.cpu0.dcache.overall_miss_latency::total  32657674996                       # number of overall miss cycles
system.cpu0.dcache.ReadReq_accesses::cpu0.data      1479344                       # number of ReadReq accesses(hits+misses)
system.cpu0.dcache.ReadReq_accesses::total      1479344                       # number of ReadReq accesses(hits+misses)
system.cpu0.dcache.WriteReq_accesses::cpu0.data        45867                       # number of WriteReq accesses(hits+misses)
system.cpu0.dcache.WriteReq_accesses::total        45867                       # number of WriteReq accesses(hits+misses)
system.cpu0.dcache.demand_accesses::cpu0.data      1525211                       # number of demand (read+write) accesses
system.cpu0.dcache.demand_accesses::total      1525211                       # number of demand (read+write) accesses
[...]
system.l2.demand_miss_rate::cpu0.data        0.222114                       # miss rate for demand accesses
system.l2.demand_miss_rate::total            0.222113                       # miss rate for demand accesses
system.l2.overall_miss_rate::cpu0.inst       0.142857                       # miss rate for overall accesses
system.l2.overall_miss_rate::cpu0.data       0.222114                       # miss rate for overall accesses
system.l2.overall_miss_rate::total           0.222113                       # miss rate for overall accesses
system.l2.ReadExReq_avg_miss_latency::cpu0.data 114304.988662                       # average ReadExReq miss latency
system.l2.ReadExReq_avg_miss_latency::total 114304.988662                       # average ReadExReq miss latency
system.l2.ReadCleanReq_avg_miss_latency::cpu0.inst        90000                       # average ReadCleanReq miss latency
system.l2.ReadCleanReq_avg_miss_latency::total        90000                       # average ReadCleanReq miss latency
system.l2.ReadSharedReq_avg_miss_latency::cpu0.data 97462.219971                       # average ReadSharedReq miss latency
system.l2.ReadSharedReq_avg_miss_latency::total 97462.219971                       # average ReadSharedReq miss latency
system.l2.demand_avg_miss_latency::cpu0.inst        90000                       # average overall miss latency
system.l2.demand_avg_miss_latency::cpu0.data 97519.898894                       # average overall miss latency
system.l2.demand_avg_miss_latency::total 97519.840499                       # average overall miss latency
system.l2.overall_avg_miss_latency::cpu0.inst        90000                       # average overall miss latency
system.l2.overall_avg_miss_latency::cpu0.data 97519.898894                       # average overall miss latency
system.l2.overall_avg_miss_latency::total 97519.840499                       # average overall miss latency
system.l2.blocked_cycles::no_mshrs                  0                       # number of cycles access was blocked
system.l2.blocked_cycles::no_targets                0                       # number of cycles access was blocked
system.l2.blocked::no_mshrs                         0                       # number of cycles access was blocked
system.l2.blocked::no_targets                       0                       # number of cycles access was blocked
system.l2.avg_blocked_cycles::no_mshrs            nan                       # average number of cycles each access was blocked
system.l2.avg_blocked_cycles::no_targets          nan                       # average number of cycles each access was blocked
system.l2.writebacks::writebacks                  534                       # number of writebacks
system.l2.writebacks::total                       534                       # number of writebacks
system.l2.ReadExReq_mshr_misses::cpu0.data          441                       # number of ReadExReq MSHR misses
system.l2.ReadExReq_mshr_misses::total            441                       # number of ReadExReq MSHR misses
system.l2.ReadCleanReq_mshr_misses::cpu0.inst            1                       # number of ReadCleanReq MSHR misses
system.l2.ReadCleanReq_mshr_misses::total            1                       # number of ReadCleanReq MSHR misses
system.l2.ReadSharedReq_mshr_misses::cpu0.data       128335                       # number of ReadSharedReq MSHR misses
system.l2.ReadSharedReq_mshr_misses::total       128335                       # number of ReadSharedReq MSHR misses
system.l2.demand_mshr_misses::cpu0.inst             1                       # number of demand (read+write) MSHR misses
system.l2.demand_mshr_misses::cpu0.data        128776                       # number of demand (read+write) MSHR misses
system.l2.demand_mshr_misses::total            128777                       # number of demand (read+write) MSHR misses
system.l2.overall_mshr_misses::cpu0.inst            1                       # number of overall MSHR misses
system.l2.overall_mshr_misses::cpu0.data       128776                       # number of overall MSHR misses
system.l2.overall_mshr_misses::total           128777                       # number of overall MSHR misses
system.l2.ReadExReq_mshr_miss_latency::cpu0.data     45998500                       # number of ReadExReq MSHR miss cycles
system.l2.ReadExReq_mshr_miss_latency::total     45998500                       # number of ReadExReq MSHR miss cycles
system.l2.ReadCleanReq_mshr_miss_latency::cpu0.inst        80000                       # number of ReadCleanReq MSHR miss cycles
system.l2.ReadCleanReq_mshr_miss_latency::total        80000                       # number of ReadCleanReq MSHR miss cycles
system.l2.ReadSharedReq_mshr_miss_latency::cpu0.data  11224454000                       # number of ReadSharedReq MSHR miss cycles
system.l2.ReadSharedReq_mshr_miss_latency::total  11224454000                       # number of ReadSharedReq MSHR miss cycles
system.l2.demand_mshr_miss_latency::cpu0.inst        80000                       # number of demand (read+write) MSHR miss cycles
system.l2.demand_mshr_miss_latency::cpu0.data  11270452500                       # number of demand (read+write) MSHR miss cycles
system.l2.demand_mshr_miss_latency::total  11270532500                       # number of demand (read+write) MSHR miss cycles
system.l2.overall_mshr_miss_latency::cpu0.inst        80000                       # number of overall MSHR miss cycles
system.l2.overall_mshr_miss_latency::cpu0.data  11270452500                       # number of overall MSHR miss cycles
system.l2.overall_mshr_miss_latency::total  11270532500                       # number of overall MSHR miss cycles
system.l2.ReadExReq_mshr_miss_rate::cpu0.data     0.216814                       # mshr miss rate for ReadExReq accesses
system.l2.ReadExReq_mshr_miss_rate::total     0.216814                       # mshr miss rate for ReadExReq accesses
system.l2.ReadCleanReq_mshr_miss_rate::cpu0.inst     0.142857                       # mshr miss rate for ReadCleanReq accesses
system.l2.ReadCleanReq_mshr_miss_rate::total     0.142857                       # mshr miss rate for ReadCleanReq accesses
system.l2.ReadSharedReq_mshr_miss_rate::cpu0.data     0.222133                       # mshr miss rate for ReadSharedReq accesses
system.l2.ReadSharedReq_mshr_miss_rate::total     0.222133                       # mshr miss rate for ReadSharedReq accesses
system.l2.demand_mshr_miss_rate::cpu0.inst     0.142857                       # mshr miss rate for demand accesses
system.l2.demand_mshr_miss_rate::cpu0.data     0.222114                       # mshr miss rate for demand accesses
system.l2.demand_mshr_miss_rate::total       0.222113                       # mshr miss rate for demand accesses
system.l2.overall_mshr_miss_rate::cpu0.inst     0.142857                       # mshr miss rate for overall accesses
system.l2.overall_mshr_miss_rate::cpu0.data     0.222114                       # mshr miss rate for overall accesses
system.l2.overall_mshr_miss_rate::total      0.222113                       # mshr miss rate for overall accesses
system.l2.ReadExReq_avg_mshr_miss_latency::cpu0.data 104304.988662                       # average ReadExReq mshr miss latency
system.l2.ReadExReq_avg_mshr_miss_latency::total 104304.988662                       # average ReadExReq mshr miss latency
system.l2.ReadCleanReq_avg_mshr_miss_latency::cpu0.inst        80000                       # average ReadCleanReq mshr miss latency
system.l2.ReadCleanReq_avg_mshr_miss_latency::total        80000                       # average ReadCleanReq mshr miss latency
system.l2.ReadSharedReq_avg_mshr_miss_latency::cpu0.data 87462.142050                       # average ReadSharedReq mshr miss latency
system.l2.ReadSharedReq_avg_mshr_miss_latency::total 87462.142050                       # average ReadSharedReq mshr miss latency
system.l2.demand_avg_mshr_miss_latency::cpu0.inst        80000                       # average overall mshr miss latency
system.l2.demand_avg_mshr_miss_latency::cpu0.data 87519.821240                       # average overall mshr miss latency
system.l2.demand_avg_mshr_miss_latency::total 87519.762846                       # average overall mshr miss latency
system.l2.overall_avg_mshr_miss_latency::cpu0.inst        80000                       # average overall mshr miss latency
system.l2.overall_avg_mshr_miss_latency::cpu0.data 87519.821240                       # average overall mshr miss latency
system.l2.overall_avg_mshr_miss_latency::total 87519.762846                       # average overall mshr miss latency
system.membus.snoop_filter.tot_requests        257550                       # Total number of requests made to the snoop filter.
system.membus.snoop_filter.hit_single_requests       128773                       # Number of requests hitting in the snoop filter with a single holder of the requested data.
system.membus.snoop_filter.hit_multi_requests            0                       # Number of requests hitting in the snoop filter with multiple (>1) holders of the requested data.
system.membus.snoop_filter.tot_snoops               0                       # Total number of snoops made to the snoop filter.
system.membus.snoop_filter.hit_single_snoops            0                       # Number of snoops hitting in the snoop filter with a single holder of the requested data.
system.membus.snoop_filter.hit_multi_snoops            0                       # Number of snoops hitting in the snoop filter with multiple (>1) holders of the requested data.
system.membus.pwrStateResidencyTicks::UNDEFINED  15267344125                       # Cumulative time (in ticks) in various power states
system.membus.trans_dist::ReadResp             128337                       # Transaction distribution
system.membus.trans_dist::WritebackDirty          534                       # Transaction distribution
system.membus.trans_dist::CleanEvict           128239                       # Transaction distribution
system.membus.trans_dist::ReadExReq               441                       # Transaction distribution
system.membus.trans_dist::ReadExResp              441                       # Transaction distribution
system.membus.trans_dist::ReadSharedReq        128336                       # Transaction distribution
system.membus.pkt_count_system.l2.mem_side::system.mem_ctrls.port       386328                       # Packet count per connected master and slave (bytes)
system.membus.pkt_count_system.l2.mem_side::total       386328                       # Packet count per connected master and slave (bytes)
system.membus.pkt_count::total                 386328                       # Packet count per connected master and slave (bytes)
system.membus.pkt_size_system.l2.mem_side::system.mem_ctrls.port      8275968                       # Cumulative packet size per connected master and slave (bytes)
system.membus.pkt_size_system.l2.mem_side::total      8275968                       # Cumulative packet size per connected master and slave (bytes)
system.membus.pkt_size::total                 8275968                       # Cumulative packet size per connected master and slave (bytes)
system.membus.snoops                                0                       # Total snoops (count)
system.membus.snoopTraffic                          0                       # Total snoop traffic (bytes)
system.membus.snoop_fanout::samples            128777                       # Request fanout histogram
system.membus.snoop_fanout::mean                    0                       # Request fanout histogram
system.membus.snoop_fanout::stdev                   0                       # Request fanout histogram
system.membus.snoop_fanout::underflows              0      0.00%      0.00% # Request fanout histogram
system.membus.snoop_fanout::0                  128777    100.00%    100.00% # Request fanout histogram
system.membus.snoop_fanout::1                       0      0.00%    100.00% # Request fanout histogram
system.membus.snoop_fanout::overflows               0      0.00%    100.00% # Request fanout histogram
system.membus.snoop_fanout::min_value               0                       # Request fanout histogram
system.membus.snoop_fanout::max_value               0                       # Request fanout histogram
system.membus.snoop_fanout::total              128777                       # Request fanout histogram
system.membus.reqLayer12.occupancy          299418000                       # Layer occupancy (ticks)
system.membus.reqLayer12.utilization              2.0                       # Layer utilization (%)
system.membus.respLayer1.occupancy          706040750                       # Layer occupancy (ticks)
system.membus.respLayer1.utilization              4.6                       # Layer utilization (%)
system.tol2bus.snoop_filter.tot_requests      1159563                       # Total number of requests made to the snoop filter.
system.tol2bus.snoop_filter.hit_single_requests       579784                       # Number of requests hitting in the snoop filter with a single holder of the requested data.
system.tol2bus.snoop_filter.hit_multi_requests         1109                       # Number of requests hitting in the snoop filter with multiple (>1) holders of the requested data.
system.tol2bus.snoop_filter.tot_snoops              8                       # Total number of snoops made to the snoop filter.
system.tol2bus.snoop_filter.hit_single_snoops            8                       # Number of snoops hitting in the snoop filter with a single holder of the requested data.
system.tol2bus.snoop_filter.hit_multi_snoops            0                       # Number of snoops hitting in the snoop filter with multiple (>1) holders of the requested data.
system.tol2bus.pwrStateResidencyTicks::UNDEFINED  15267344125                       # Cumulative time (in ticks) in various power states
system.tol2bus.trans_dist::ReadResp            577748                       # Transaction distribution
system.tol2bus.trans_dist::WritebackDirty         9817                       # Transaction distribution
system.tol2bus.trans_dist::WritebackClean            7                       # Transaction distribution
system.tol2bus.trans_dist::CleanEvict          698739                       # Transaction distribution
system.tol2bus.trans_dist::ReadExReq             2034                       # Transaction distribution
system.tol2bus.trans_dist::ReadExResp            2034                       # Transaction distribution
system.tol2bus.trans_dist::ReadCleanReq             7                       # Transaction distribution
system.tol2bus.trans_dist::ReadSharedReq       577740                       # Transaction distribution
system.tol2bus.pkt_count_system.cpu0.icache.mem_side::system.l2.cpu_side           21                       # Packet count per connected master and slave (bytes)
system.tol2bus.pkt_count_system.cpu0.dcache.mem_side::system.l2.cpu_side      1739324                       # Packet count per connected master and slave (bytes)
system.tol2bus.pkt_count::total               1739345                       # Packet count per connected master and slave (bytes)
system.tol2bus.pkt_size_system.cpu0.icache.mem_side::system.l2.cpu_side          896                       # Cumulative packet size per connected master and slave (bytes)
system.tol2bus.pkt_size_system.cpu0.dcache.mem_side::system.l2.cpu_side     37699712                       # Cumulative packet size per connected master and slave (bytes)
system.tol2bus.pkt_size::total               37700608                       # Cumulative packet size per connected master and slave (bytes)
system.tol2bus.snoops                          128781                       # Total snoops (count)
system.tol2bus.snoopTraffic                     34176                       # Total snoop traffic (bytes)
system.tol2bus.snoop_fanout::samples           708562                       # Request fanout histogram
system.tol2bus.snoop_fanout::mean            0.001579                       # Request fanout histogram
system.tol2bus.snoop_fanout::stdev           0.039708                       # Request fanout histogram
system.tol2bus.snoop_fanout::underflows             0      0.00%      0.00% # Request fanout histogram
system.tol2bus.snoop_fanout::0                 707443     99.84%     99.84% # Request fanout histogram
system.tol2bus.snoop_fanout::1                   1119      0.16%    100.00% # Request fanout histogram
system.tol2bus.snoop_fanout::2                      0      0.00%    100.00% # Request fanout histogram
system.tol2bus.snoop_fanout::3                      0      0.00%    100.00% # Request fanout histogram
system.tol2bus.snoop_fanout::4                      0      0.00%    100.00% # Request fanout histogram
system.tol2bus.snoop_fanout::5                      0      0.00%    100.00% # Request fanout histogram
system.tol2bus.snoop_fanout::6                      0      0.00%    100.00% # Request fanout histogram
system.tol2bus.snoop_fanout::7                      0      0.00%    100.00% # Request fanout histogram
system.tol2bus.snoop_fanout::8                      0      0.00%    100.00% # Request fanout histogram
system.tol2bus.snoop_fanout::9                      0      0.00%    100.00% # Request fanout histogram
system.tol2bus.snoop_fanout::10                     0      0.00%    100.00% # Request fanout histogram
system.tol2bus.snoop_fanout::11                     0      0.00%    100.00% # Request fanout histogram
system.tol2bus.snoop_fanout::12                     0      0.00%    100.00% # Request fanout histogram
system.tol2bus.snoop_fanout::13                     0      0.00%    100.00% # Request fanout histogram
system.tol2bus.snoop_fanout::14                     0      0.00%    100.00% # Request fanout histogram
system.tol2bus.snoop_fanout::15                     0      0.00%    100.00% # Request fanout histogram
system.tol2bus.snoop_fanout::16                     0      0.00%    100.00% # Request fanout histogram
system.tol2bus.snoop_fanout::17                     0      0.00%    100.00% # Request fanout histogram
system.tol2bus.snoop_fanout::18                     0      0.00%    100.00% # Request fanout histogram
system.tol2bus.snoop_fanout::19                     0      0.00%    100.00% # Request fanout histogram
system.tol2bus.snoop_fanout::20                     0      0.00%    100.00% # Request fanout histogram
system.tol2bus.snoop_fanout::21                     0      0.00%    100.00% # Request fanout histogram
system.tol2bus.snoop_fanout::22                     0      0.00%    100.00% # Request fanout histogram
system.tol2bus.snoop_fanout::23                     0      0.00%    100.00% # Request fanout histogram
system.tol2bus.snoop_fanout::24                     0      0.00%    100.00% # Request fanout histogram
system.tol2bus.snoop_fanout::overflows              0      0.00%    100.00% # Request fanout histogram
system.tol2bus.snoop_fanout::min_value              0                       # Request fanout histogram
system.tol2bus.snoop_fanout::max_value              1                       # Request fanout histogram
system.tol2bus.snoop_fanout::total             708562                       # Request fanout histogram
system.tol2bus.reqLayer0.occupancy          589071500                       # Layer occupancy (ticks)
system.tol2bus.reqLayer0.utilization              3.9                       # Layer utilization (%)
system.tol2bus.respLayer0.occupancy             10500                       # Layer occupancy (ticks)
system.tol2bus.respLayer0.utilization             0.0                       # Layer utilization (%)
system.tol2bus.respLayer1.occupancy         869662500                       # Layer occupancy (ticks)
system.tol2bus.respLayer1.utilization             5.7                       # Layer utilization (%)

---------- End Simulation Statistics   ----------
