
---------- Begin Simulation Statistics ----------
sim_seconds                                  0.015267                       # Number of seconds simulated
sim_ticks                                 15267344125                       # Number of ticks simulated
final_tick                               3175607578000                       # Number of ticks from beginning of simulation (restored from checkpoints and never reset)
sim_freq                                 1000000000000                       # Frequency of simulated ticks
host_inst_rate                               50846720                       # Simulator instruction rate (inst/s)
host_op_rate                                 94395709                       # Simulator op (including micro ops) rate (op/s)
host_tick_rate                              135785836                       # Simulator tick rate (ticks/s)
host_mem_usage                                3428856                       # Number of bytes of host memory used
host_seconds                                   112.44                       # Real time elapsed on the host
sim_insts                                  5717048783                       # Number of instructions simulated
sim_ops                                   10613563951                       # Number of ops (including micro ops) simulated
system.voltage_domain.voltage                       1                       # Voltage in Volts
system.clk_domain.clock                          1000                       # Clock period in ticks
system.mem_ctrls.pwrStateResidencyTicks::UNDEFINED  15267344125                       # Cumulative time (in ticks) in various power states
system.mem_ctrls.bytes_read::cpu0.inst            128                       # Number of bytes read from this memory
system.mem_ctrls.bytes_read::cpu0.data         195584                       # Number of bytes read from this memory
system.mem_ctrls.bytes_read::total             195712                       # Number of bytes read from this memory
system.mem_ctrls.bytes_inst_read::cpu0.inst          128                       # Number of instructions bytes read from this memory
system.mem_ctrls.bytes_inst_read::total           128                       # Number of instructions bytes read from this memory
system.mem_ctrls.bytes_written::writebacks        11776                       # Number of bytes written to this memory
system.mem_ctrls.bytes_written::total           11776                       # Number of bytes written to this memory
system.mem_ctrls.num_reads::cpu0.inst               2                       # Number of read requests responded to by this memory
system.mem_ctrls.num_reads::cpu0.data            3056                       # Number of read requests responded to by this memory
system.mem_ctrls.num_reads::total                3058                       # Number of read requests responded to by this memory
system.mem_ctrls.num_writes::writebacks           184                       # Number of write requests responded to by this memory
system.mem_ctrls.num_writes::total                184                       # Number of write requests responded to by this memory
system.mem_ctrls.bw_read::cpu0.inst              8384                       # Total read bandwidth from this memory (bytes/s)
system.mem_ctrls.bw_read::cpu0.data          12810611                       # Total read bandwidth from this memory (bytes/s)
system.mem_ctrls.bw_read::total              12818994                       # Total read bandwidth from this memory (bytes/s)
system.mem_ctrls.bw_inst_read::cpu0.inst         8384                       # Instruction read bandwidth from this memory (bytes/s)
system.mem_ctrls.bw_inst_read::total             8384                       # Instruction read bandwidth from this memory (bytes/s)
system.mem_ctrls.bw_write::writebacks          771319                       # Write bandwidth from this memory (bytes/s)
system.mem_ctrls.bw_write::total               771319                       # Write bandwidth from this memory (bytes/s)
system.mem_ctrls.bw_total::writebacks          771319                       # Total bandwidth to/from this memory (bytes/s)
system.mem_ctrls.bw_total::cpu0.inst             8384                       # Total bandwidth to/from this memory (bytes/s)
system.mem_ctrls.bw_total::cpu0.data         12810611                       # Total bandwidth to/from this memory (bytes/s)
system.mem_ctrls.bw_total::total             13590314                       # Total bandwidth to/from this memory (bytes/s)
system.mem_ctrls.readReqs                        3058                       # Number of read requests accepted
system.mem_ctrls.writeReqs                        184                       # Number of write requests accepted
system.mem_ctrls.readBursts                      3058                       # Number of DRAM read bursts, including those serviced by the write queue
system.mem_ctrls.writeBursts                      184                       # Number of DRAM write bursts, including those merged in the write queue
system.mem_ctrls.bytesReadDRAM                 195520                       # Total number of bytes read from DRAM
system.mem_ctrls.bytesReadWrQ                     192                       # Total number of bytes read from write queue
system.mem_ctrls.bytesWritten                   11904                       # Total number of bytes written to DRAM
system.mem_ctrls.bytesReadSys                  195712                       # Total read bytes from the system interface side
system.mem_ctrls.bytesWrittenSys                11776                       # Total written bytes from the system interface side
system.mem_ctrls.servicedByWrQ                      3                       # Number of DRAM read bursts serviced by the write queue
system.mem_ctrls.mergedWrBursts                     0                       # Number of DRAM write bursts merged with an existing one
system.mem_ctrls.neitherReadNorWriteReqs            0                       # Number of requests that are neither read nor write
system.mem_ctrls.perBankRdBursts::0               105                       # Per bank write bursts
system.mem_ctrls.perBankRdBursts::1                 0                       # Per bank write bursts
system.mem_ctrls.perBankRdBursts::2                11                       # Per bank write bursts
system.mem_ctrls.perBankRdBursts::3               128                       # Per bank write bursts
system.mem_ctrls.perBankRdBursts::4               129                       # Per bank write bursts
system.mem_ctrls.perBankRdBursts::5               196                       # Per bank write bursts
system.mem_ctrls.perBankRdBursts::6               297                       # Per bank write bursts
system.mem_ctrls.perBankRdBursts::7               308                       # Per bank write bursts
system.mem_ctrls.perBankRdBursts::8               242                       # Per bank write bursts
system.mem_ctrls.perBankRdBursts::9               241                       # Per bank write bursts
system.mem_ctrls.perBankRdBursts::10              370                       # Per bank write bursts
system.mem_ctrls.perBankRdBursts::11              249                       # Per bank write bursts
system.mem_ctrls.perBankRdBursts::12              239                       # Per bank write bursts
system.mem_ctrls.perBankRdBursts::13              195                       # Per bank write bursts
system.mem_ctrls.perBankRdBursts::14              149                       # Per bank write bursts
system.mem_ctrls.perBankRdBursts::15              196                       # Per bank write bursts
system.mem_ctrls.perBankWrBursts::0                 1                       # Per bank write bursts
system.mem_ctrls.perBankWrBursts::1                 0                       # Per bank write bursts
system.mem_ctrls.perBankWrBursts::2                 1                       # Per bank write bursts
system.mem_ctrls.perBankWrBursts::3                 3                       # Per bank write bursts
system.mem_ctrls.perBankWrBursts::4                 1                       # Per bank write bursts
system.mem_ctrls.perBankWrBursts::5                 2                       # Per bank write bursts
system.mem_ctrls.perBankWrBursts::6               106                       # Per bank write bursts
system.mem_ctrls.perBankWrBursts::7                50                       # Per bank write bursts
system.mem_ctrls.perBankWrBursts::8                 5                       # Per bank write bursts
system.mem_ctrls.perBankWrBursts::9                 9                       # Per bank write bursts
system.mem_ctrls.perBankWrBursts::10                5                       # Per bank write bursts
system.mem_ctrls.perBankWrBursts::11                0                       # Per bank write bursts
system.mem_ctrls.perBankWrBursts::12                0                       # Per bank write bursts
system.mem_ctrls.perBankWrBursts::13                1                       # Per bank write bursts
system.mem_ctrls.perBankWrBursts::14                0                       # Per bank write bursts
system.mem_ctrls.perBankWrBursts::15                2                       # Per bank write bursts
system.mem_ctrls.numRdRetry                         0                       # Number of times read queue was full causing retry
system.mem_ctrls.numWrRetry                         0                       # Number of times write queue was full causing retry
system.mem_ctrls.totGap                   15271848000                       # Total gap between requests
system.mem_ctrls.readPktSize::0                     0                       # Read request sizes (log2)
system.mem_ctrls.readPktSize::1                     0                       # Read request sizes (log2)
system.mem_ctrls.readPktSize::2                     0                       # Read request sizes (log2)
system.mem_ctrls.readPktSize::3                     0                       # Read request sizes (log2)
system.mem_ctrls.readPktSize::4                     0                       # Read request sizes (log2)
system.mem_ctrls.readPktSize::5                     0                       # Read request sizes (log2)
system.mem_ctrls.readPktSize::6                  3058                       # Read request sizes (log2)
system.mem_ctrls.writePktSize::0                    0                       # Write request sizes (log2)
system.mem_ctrls.writePktSize::1                    0                       # Write request sizes (log2)
system.mem_ctrls.writePktSize::2                    0                       # Write request sizes (log2)
system.mem_ctrls.writePktSize::3                    0                       # Write request sizes (log2)
system.mem_ctrls.writePktSize::4                    0                       # Write request sizes (log2)
system.mem_ctrls.writePktSize::5                    0                       # Write request sizes (log2)
system.mem_ctrls.writePktSize::6                  184                       # Write request sizes (log2)
system.mem_ctrls.rdQLenPdf::0                    2815                       # What read queue length does an incoming req see
system.mem_ctrls.rdQLenPdf::1                     223                       # What read queue length does an incoming req see
system.mem_ctrls.rdQLenPdf::2                      17                       # What read queue length does an incoming req see
system.mem_ctrls.rdQLenPdf::3                       0                       # What read queue length does an incoming req see
system.mem_ctrls.rdQLenPdf::4                       0                       # What read queue length does an incoming req see
system.mem_ctrls.rdQLenPdf::5                       0                       # What read queue length does an incoming req see
system.mem_ctrls.rdQLenPdf::6                       0                       # What read queue length does an incoming req see
system.mem_ctrls.rdQLenPdf::7                       0                       # What read queue length does an incoming req see
system.mem_ctrls.rdQLenPdf::8                       0                       # What read queue length does an incoming req see
system.mem_ctrls.rdQLenPdf::9                       0                       # What read queue length does an incoming req see
system.mem_ctrls.rdQLenPdf::10                      0                       # What read queue length does an incoming req see
system.mem_ctrls.rdQLenPdf::11                      0                       # What read queue length does an incoming req see
system.mem_ctrls.rdQLenPdf::12                      0                       # What read queue length does an incoming req see
system.mem_ctrls.rdQLenPdf::13                      0                       # What read queue length does an incoming req see
system.mem_ctrls.rdQLenPdf::14                      0                       # What read queue length does an incoming req see
system.mem_ctrls.rdQLenPdf::15                      0                       # What read queue length does an incoming req see
system.mem_ctrls.rdQLenPdf::16                      0                       # What read queue length does an incoming req see
system.mem_ctrls.rdQLenPdf::17                      0                       # What read queue length does an incoming req see
system.mem_ctrls.rdQLenPdf::18                      0                       # What read queue length does an incoming req see
system.mem_ctrls.rdQLenPdf::19                      0                       # What read queue length does an incoming req see
system.mem_ctrls.rdQLenPdf::20                      0                       # What read queue length does an incoming req see
system.mem_ctrls.rdQLenPdf::21                      0                       # What read queue length does an incoming req see
system.mem_ctrls.rdQLenPdf::22                      0                       # What read queue length does an incoming req see
system.mem_ctrls.rdQLenPdf::23                      0                       # What read queue length does an incoming req see
system.mem_ctrls.rdQLenPdf::24                      0                       # What read queue length does an incoming req see
system.mem_ctrls.rdQLenPdf::25                      0                       # What read queue length does an incoming req see
system.mem_ctrls.rdQLenPdf::26                      0                       # What read queue length does an incoming req see
system.mem_ctrls.rdQLenPdf::27                      0                       # What read queue length does an incoming req see
system.mem_ctrls.rdQLenPdf::28                      0                       # What read queue length does an incoming req see
system.mem_ctrls.rdQLenPdf::29                      0                       # What read queue length does an incoming req see
system.mem_ctrls.rdQLenPdf::30                      0                       # What read queue length does an incoming req see
system.mem_ctrls.rdQLenPdf::31                      0                       # What read queue length does an incoming req see
system.mem_ctrls.wrQLenPdf::0                       0                       # What write queue length does an incoming req see
system.mem_ctrls.wrQLenPdf::1                       0                       # What write queue length does an incoming req see
system.mem_ctrls.wrQLenPdf::2                       0                       # What write queue length does an incoming req see
system.mem_ctrls.wrQLenPdf::3                       0                       # What write queue length does an incoming req see
system.mem_ctrls.wrQLenPdf::4                       0                       # What write queue length does an incoming req see
system.mem_ctrls.wrQLenPdf::5                       0                       # What write queue length does an incoming req see
system.mem_ctrls.wrQLenPdf::6                       0                       # What write queue length does an incoming req see
system.mem_ctrls.wrQLenPdf::7                       0                       # What write queue length does an incoming req see
system.mem_ctrls.wrQLenPdf::8                       0                       # What write queue length does an incoming req see
system.mem_ctrls.wrQLenPdf::9                       0                       # What write queue length does an incoming req see
system.mem_ctrls.wrQLenPdf::10                      0                       # What write queue length does an incoming req see
system.mem_ctrls.wrQLenPdf::11                      0                       # What write queue length does an incoming req see
system.mem_ctrls.wrQLenPdf::12                      0                       # What write queue length does an incoming req see
system.mem_ctrls.wrQLenPdf::13                      0                       # What write queue length does an incoming req see
system.mem_ctrls.wrQLenPdf::14                      0                       # What write queue length does an incoming req see
system.mem_ctrls.wrQLenPdf::15                      5                       # What write queue length does an incoming req see
system.mem_ctrls.wrQLenPdf::16                      5                       # What write queue length does an incoming req see
system.mem_ctrls.wrQLenPdf::17                     11                       # What write queue length does an incoming req see
system.mem_ctrls.wrQLenPdf::18                     11                       # What write queue length does an incoming req see
system.mem_ctrls.wrQLenPdf::19                     11                       # What write queue length does an incoming req see
system.mem_ctrls.wrQLenPdf::20                     11                       # What write queue length does an incoming req see
system.mem_ctrls.wrQLenPdf::21                     11                       # What write queue length does an incoming req see
system.mem_ctrls.wrQLenPdf::22                     11                       # What write queue length does an incoming req see
system.mem_ctrls.wrQLenPdf::23                     11                       # What write queue length does an incoming req see
system.mem_ctrls.wrQLenPdf::24                     11                       # What write queue length does an incoming req see
system.mem_ctrls.wrQLenPdf::25                     11                       # What write queue length does an incoming req see
system.mem_ctrls.wrQLenPdf::26                     11                       # What write queue length does an incoming req see
system.mem_ctrls.wrQLenPdf::27                     11                       # What write queue length does an incoming req see
system.mem_ctrls.wrQLenPdf::28                     11                       # What write queue length does an incoming req see
system.mem_ctrls.wrQLenPdf::29                     10                       # What write queue length does an incoming req see
system.mem_ctrls.wrQLenPdf::30                     10                       # What write queue length does an incoming req see
system.mem_ctrls.wrQLenPdf::31                     11                       # What write queue length does an incoming req see
system.mem_ctrls.wrQLenPdf::32                     11                       # What write queue length does an incoming req see
system.mem_ctrls.wrQLenPdf::33                      0                       # What write queue length does an incoming req see
system.mem_ctrls.wrQLenPdf::34                      0                       # What write queue length does an incoming req see
system.mem_ctrls.wrQLenPdf::35                      0                       # What write queue length does an incoming req see
system.mem_ctrls.wrQLenPdf::36                      0                       # What write queue length does an incoming req see
system.mem_ctrls.wrQLenPdf::37                      0                       # What write queue length does an incoming req see
system.mem_ctrls.wrQLenPdf::38                      0                       # What write queue length does an incoming req see
system.mem_ctrls.wrQLenPdf::39                      0                       # What write queue length does an incoming req see
system.mem_ctrls.wrQLenPdf::40                      0                       # What write queue length does an incoming req see
system.mem_ctrls.wrQLenPdf::41                      0                       # What write queue length does an incoming req see
system.mem_ctrls.wrQLenPdf::42                      0                       # What write queue length does an incoming req see
system.mem_ctrls.wrQLenPdf::43                      0                       # What write queue length does an incoming req see
system.mem_ctrls.wrQLenPdf::44                      0                       # What write queue length does an incoming req see
system.mem_ctrls.wrQLenPdf::45                      0                       # What write queue length does an incoming req see
system.mem_ctrls.wrQLenPdf::46                      0                       # What write queue length does an incoming req see
system.mem_ctrls.wrQLenPdf::47                      0                       # What write queue length does an incoming req see
system.mem_ctrls.wrQLenPdf::48                      0                       # What write queue length does an incoming req see
system.mem_ctrls.wrQLenPdf::49                      0                       # What write queue length does an incoming req see
system.mem_ctrls.wrQLenPdf::50                      0                       # What write queue length does an incoming req see
system.mem_ctrls.wrQLenPdf::51                      0                       # What write queue length does an incoming req see
system.mem_ctrls.wrQLenPdf::52                      0                       # What write queue length does an incoming req see
system.mem_ctrls.wrQLenPdf::53                      0                       # What write queue length does an incoming req see
system.mem_ctrls.wrQLenPdf::54                      0                       # What write queue length does an incoming req see
system.mem_ctrls.wrQLenPdf::55                      0                       # What write queue length does an incoming req see
system.mem_ctrls.wrQLenPdf::56                      0                       # What write queue length does an incoming req see
system.mem_ctrls.wrQLenPdf::57                      0                       # What write queue length does an incoming req see
system.mem_ctrls.wrQLenPdf::58                      0                       # What write queue length does an incoming req see
system.mem_ctrls.wrQLenPdf::59                      0                       # What write queue length does an incoming req see
system.mem_ctrls.wrQLenPdf::60                      0                       # What write queue length does an incoming req see
system.mem_ctrls.wrQLenPdf::61                      0                       # What write queue length does an incoming req see
system.mem_ctrls.wrQLenPdf::62                      0                       # What write queue length does an incoming req see
system.mem_ctrls.wrQLenPdf::63                      0                       # What write queue length does an incoming req see
system.mem_ctrls.bytesPerActivate::samples         2576                       # Bytes accessed per row activation
system.mem_ctrls.bytesPerActivate::mean     80.472050                       # Bytes accessed per row activation
system.mem_ctrls.bytesPerActivate::gmean    74.269226                       # Bytes accessed per row activation
system.mem_ctrls.bytesPerActivate::stdev    57.608420                       # Bytes accessed per row activation
system.mem_ctrls.bytesPerActivate::0-127         2076     80.59%     80.59% # Bytes accessed per row activation
system.mem_ctrls.bytesPerActivate::128-255          486     18.87%     99.46% # Bytes accessed per row activation
system.mem_ctrls.bytesPerActivate::256-383            1      0.04%     99.50% # Bytes accessed per row activation
system.mem_ctrls.bytesPerActivate::384-511            1      0.04%     99.53% # Bytes accessed per row activation
system.mem_ctrls.bytesPerActivate::512-639            4      0.16%     99.69% # Bytes accessed per row activation
system.mem_ctrls.bytesPerActivate::640-767            1      0.04%     99.73% # Bytes accessed per row activation
system.mem_ctrls.bytesPerActivate::768-895            3      0.12%     99.84% # Bytes accessed per row activation
system.mem_ctrls.bytesPerActivate::1024-1151            4      0.16%    100.00% # Bytes accessed per row activation
system.mem_ctrls.bytesPerActivate::total         2576                       # Bytes accessed per row activation
system.mem_ctrls.rdPerTurnAround::samples           11                       # Reads before turning the bus around for writes
system.mem_ctrls.rdPerTurnAround::mean     284.363636                       # Reads before turning the bus around for writes
system.mem_ctrls.rdPerTurnAround::gmean    280.383197                       # Reads before turning the bus around for writes
system.mem_ctrls.rdPerTurnAround::stdev     48.709902                       # Reads before turning the bus around for writes
system.mem_ctrls.rdPerTurnAround::192-207            1      9.09%      9.09% # Reads before turning the bus around for writes
system.mem_ctrls.rdPerTurnAround::208-223            1      9.09%     18.18% # Reads before turning the bus around for writes
system.mem_ctrls.rdPerTurnAround::240-255            1      9.09%     27.27% # Reads before turning the bus around for writes
system.mem_ctrls.rdPerTurnAround::256-271            1      9.09%     36.36% # Reads before turning the bus around for writes
system.mem_ctrls.rdPerTurnAround::272-287            1      9.09%     45.45% # Reads before turning the bus around for writes
system.mem_ctrls.rdPerTurnAround::288-303            2     18.18%     63.64% # Reads before turning the bus around for writes
system.mem_ctrls.rdPerTurnAround::304-319            1      9.09%     72.73% # Reads before turning the bus around for writes
system.mem_ctrls.rdPerTurnAround::320-335            1      9.09%     81.82% # Reads before turning the bus around for writes
system.mem_ctrls.rdPerTurnAround::336-351            1      9.09%     90.91% # Reads before turning the bus around for writes
system.mem_ctrls.rdPerTurnAround::352-367            1      9.09%    100.00% # Reads before turning the bus around for writes
system.mem_ctrls.rdPerTurnAround::total            11                       # Reads before turning the bus around for writes
system.mem_ctrls.wrPerTurnAround::samples           11                       # Writes before turning the bus around for reads
system.mem_ctrls.wrPerTurnAround::mean      16.909091                       # Writes before turning the bus around for reads
system.mem_ctrls.wrPerTurnAround::gmean     16.879949                       # Writes before turning the bus around for reads
system.mem_ctrls.wrPerTurnAround::stdev      1.044466                       # Writes before turning the bus around for reads
system.mem_ctrls.wrPerTurnAround::16                6     54.55%     54.55% # Writes before turning the bus around for reads
system.mem_ctrls.wrPerTurnAround::18                5     45.45%    100.00% # Writes before turning the bus around for reads
system.mem_ctrls.wrPerTurnAround::total            11                       # Writes before turning the bus around for reads
system.mem_ctrls.totQLat                    508103500                       # Total ticks spent queuing
system.mem_ctrls.totMemAccLat               565384750                       # Total ticks spent from burst creation until serviced by the DRAM
system.mem_ctrls.totBusLat                   15275000                       # Total ticks spent in databus transfers
system.mem_ctrls.avgQLat                    166318.66                       # Average queueing delay per DRAM burst
system.mem_ctrls.avgBusLat                    5000.00                       # Average bus latency per DRAM burst
system.mem_ctrls.avgMemAccLat               185068.66                       # Average memory access latency per DRAM burst
system.mem_ctrls.avgRdBW                        12.81                       # Average DRAM read bandwidth in MiByte/s
system.mem_ctrls.avgWrBW                         0.78                       # Average achieved write bandwidth in MiByte/s
system.mem_ctrls.avgRdBWSys                     12.82                       # Average system read bandwidth in MiByte/s
system.mem_ctrls.avgWrBWSys                      0.77                       # Average system write bandwidth in MiByte/s
system.mem_ctrls.peakBW                      12800.00                       # Theoretical peak bandwidth in MiByte/s
system.mem_ctrls.busUtil                         0.11                       # Data bus utilization in percentage
system.mem_ctrls.busUtilRead                     0.10                       # Data bus utilization in percentage for reads
system.mem_ctrls.busUtilWrite                    0.01                       # Data bus utilization in percentage for writes
system.mem_ctrls.avgRdQLen                       1.13                       # Average read queue length when enqueuing
system.mem_ctrls.avgWrQLen                      24.97                       # Average write queue length when enqueuing
system.mem_ctrls.readRowHits                      512                       # Number of row buffer hits during reads
system.mem_ctrls.writeRowHits                     152                       # Number of row buffer hits during writes
system.mem_ctrls.readRowHitRate                 16.76                       # Row buffer hit rate for reads
system.mem_ctrls.writeRowHitRate                82.61                       # Row buffer hit rate for writes
system.mem_ctrls.avgGap                    4710625.54                       # Average gap between requests
system.mem_ctrls.pageHitRate                    20.50                       # Row buffer hit rate, read and write combined
system.mem_ctrls_0.actEnergy                  7254240                       # Energy for activate commands per rank (pJ)
system.mem_ctrls_0.preEnergy                  3851925                       # Energy for precharge commands per rank (pJ)
system.mem_ctrls_0.readEnergy                 8382360                       # Energy for read commands per rank (pJ)
system.mem_ctrls_0.writeEnergy                 856080                       # Energy for write commands per rank (pJ)
system.mem_ctrls_0.refreshEnergy         894915840.000000                       # Energy for refresh commands per rank (pJ)
system.mem_ctrls_0.actBackEnergy            192834420                       # Energy for active background per rank (pJ)
system.mem_ctrls_0.preBackEnergy             51217440                       # Energy for precharge background per rank (pJ)
system.mem_ctrls_0.actPowerDownEnergy      1550699250                       # Energy for active power-down per rank (pJ)
system.mem_ctrls_0.prePowerDownEnergy      1802582880                       # Energy for precharge power-down per rank (pJ)
system.mem_ctrls_0.selfRefreshEnergy       1792216800                       # Energy for self refresh per rank (pJ)
system.mem_ctrls_0.totalEnergy             6305264445                       # Total energy per rank (pJ)
system.mem_ctrls_0.averagePower            412.990262                       # Core power per rank (mW)
system.mem_ctrls_0.totalIdleTime          14705482125                       # Total Idle time Per DRAM Rank
system.mem_ctrls_0.memoryStateTime::IDLE    101934000                       # Time in different power states
system.mem_ctrls_0.memoryStateTime::REF     380828000                       # Time in different power states
system.mem_ctrls_0.memoryStateTime::SREF   6615178000                       # Time in different power states
system.mem_ctrls_0.memoryStateTime::PRE_PDN   4694216375                       # Time in different power states
system.mem_ctrls_0.memoryStateTime::ACT      74546250                       # Time in different power states
system.mem_ctrls_0.memoryStateTime::ACT_PDN   3400641500                       # Time in different power states
system.mem_ctrls_1.actEnergy                 11145540                       # Energy for activate commands per rank (pJ)
system.mem_ctrls_1.preEnergy                  5923995                       # Energy for precharge commands per rank (pJ)
system.mem_ctrls_1.readEnergy                13430340                       # Energy for read commands per rank (pJ)
system.mem_ctrls_1.writeEnergy                 114840                       # Energy for write commands per rank (pJ)
system.mem_ctrls_1.refreshEnergy         1130322960.000000                       # Energy for refresh commands per rank (pJ)
system.mem_ctrls_1.actBackEnergy            236919930                       # Energy for active background per rank (pJ)
system.mem_ctrls_1.preBackEnergy             63834240                       # Energy for precharge background per rank (pJ)
system.mem_ctrls_1.actPowerDownEnergy      1957889010                       # Energy for active power-down per rank (pJ)
system.mem_ctrls_1.prePowerDownEnergy      2306898720                       # Energy for precharge power-down per rank (pJ)
system.mem_ctrls_1.selfRefreshEnergy       1280769960                       # Energy for self refresh per rank (pJ)
system.mem_ctrls_1.totalEnergy             7007919915                       # Total energy per rank (pJ)
system.mem_ctrls_1.averagePower            459.013687                       # Core power per rank (mW)
system.mem_ctrls_1.totalIdleTime          14575423125                       # Total Idle time Per DRAM Rank
system.mem_ctrls_1.memoryStateTime::IDLE    126900000                       # Time in different power states
system.mem_ctrls_1.memoryStateTime::REF     480954000                       # Time in different power states
system.mem_ctrls_1.memoryStateTime::SREF   4278900875                       # Time in different power states
system.mem_ctrls_1.memoryStateTime::PRE_PDN   6007543000                       # Time in different power states
system.mem_ctrls_1.memoryStateTime::ACT      79436250                       # Time in different power states
system.mem_ctrls_1.memoryStateTime::ACT_PDN   4293610000                       # Time in different power states
system.pwrStateResidencyTicks::UNDEFINED  15267344125                       # Cumulative time (in ticks) in various power states
system.cpu0.branchPred.lookups                6653463                       # Number of BP lookups
system.cpu0.branchPred.condPredicted          6653463                       # Number of conditional branches predicted
system.cpu0.branchPred.condIncorrect           281564                       # Number of conditional branches incorrect
system.cpu0.branchPred.BTBLookups             4900865                       # Number of BTB lookups
system.cpu0.branchPred.BTBHits                      0                       # Number of BTB hits
system.cpu0.branchPred.BTBCorrect                   0                       # Number of correct BTB predictions (this stat may not work properly.
system.cpu0.branchPred.BTBHitPct             0.000000                       # BTB Hit Percentage
system.cpu0.branchPred.usedRAS                 198559                       # Number of times the RAS was used to get a target.
system.cpu0.branchPred.RASInCorrect             27780                       # Number of incorrect RAS predictions.
system.cpu0.branchPred.indirectLookups        4900865                       # Number of indirect predictor lookups.
system.cpu0.branchPred.indirectHits           2830828                       # Number of indirect target hits.
system.cpu0.branchPred.indirectMisses         2070037                       # Number of indirect misses.
system.cpu0.branchPredindirectMispredicted        91527                       # Number of mispredicted indirect branches.
system.cpu_voltage_domain.voltage                   1                       # Voltage in Volts
system.cpu_clk_domain.clock                       500                       # Clock period in ticks
system.cpu0.dtb.walker.pwrStateResidencyTicks::UNDEFINED  15267344125                       # Cumulative time (in ticks) in various power states
system.cpu0.dtb.rdAccesses                    3357842                       # TLB accesses on read requests
system.cpu0.dtb.wrAccesses                     242068                       # TLB accesses on write requests
system.cpu0.dtb.rdMisses                       733448                       # TLB misses on read requests
system.cpu0.dtb.wrMisses                         4326                       # TLB misses on write requests
system.cpu0.apic_clk_domain.clock                8000                       # Clock period in ticks
system.cpu0.interrupts.pwrStateResidencyTicks::UNDEFINED  15267344125                       # Cumulative time (in ticks) in various power states
system.cpu0.itb.walker.pwrStateResidencyTicks::UNDEFINED  15267344125                       # Cumulative time (in ticks) in various power states
system.cpu0.itb.rdAccesses                          0                       # TLB accesses on read requests
system.cpu0.itb.wrAccesses                    5584935                       # TLB accesses on write requests
system.cpu0.itb.rdMisses                            0                       # TLB misses on read requests
system.cpu0.itb.wrMisses                        16441                       # TLB misses on write requests
system.cpu0.workload.numSyscalls                    1                       # Number of system calls
system.cpu0.pwrStateResidencyTicks::ON    15267344125                       # Cumulative time (in ticks) in various power states
system.cpu0.numCycles                        30534689                       # number of cpu cycles simulated
system.cpu0.numWorkItemsStarted                     0                       # number of work items this cpu started
system.cpu0.numWorkItemsCompleted                   0                       # number of work items this cpu completed
system.cpu0.fetch.icacheStallCycles           5711572                       # Number of cycles fetch is stalled on an Icache miss
system.cpu0.fetch.Insts                      19430441                       # Number of instructions fetch has processed
system.cpu0.fetch.Branches                    6653463                       # Number of branches that fetch encountered
system.cpu0.fetch.predictedBranches           3029387                       # Number of branches that fetch has predicted taken
system.cpu0.fetch.Cycles                     24412994                       # Number of cycles fetch has run and was not squashing or blocked
system.cpu0.fetch.SquashCycles                 574172                       # Number of cycles fetch has spent squashing
system.cpu0.fetch.TlbCycles                       967                       # Number of cycles fetch has spent waiting for tlb
system.cpu0.fetch.MiscStallCycles                3702                       # Number of cycles fetch has spent waiting on interrupts, or bad addresses, or out of MSHRs
system.cpu0.fetch.PendingTrapStallCycles       117589                       # Number of stall cycles due to pending traps
system.cpu0.fetch.CacheLines                  5568494                       # Number of cache lines fetched
system.cpu0.fetch.IcacheSquashes                45602                       # Number of outstanding Icache misses that were squashed
system.cpu0.fetch.ItlbSquashes                     22                       # Number of outstanding ITLB misses that were squashed
system.cpu0.fetch.rateDist::samples          30533910                       # Number of instructions fetched each cycle (Total)
system.cpu0.fetch.rateDist::mean             1.281332                       # Number of instructions fetched each cycle (Total)
system.cpu0.fetch.rateDist::stdev            2.626193                       # Number of instructions fetched each cycle (Total)
system.cpu0.fetch.rateDist::underflows              0      0.00%      0.00% # Number of instructions fetched each cycle (Total)
system.cpu0.fetch.rateDist::0                23001836     75.33%     75.33% # Number of instructions fetched each cycle (Total)
system.cpu0.fetch.rateDist::1                   66121      0.22%     75.55% # Number of instructions fetched each cycle (Total)
system.cpu0.fetch.rateDist::2                 2733718      8.95%     84.50% # Number of instructions fetched each cycle (Total)
system.cpu0.fetch.rateDist::3                  113950      0.37%     84.87% # Number of instructions fetched each cycle (Total)
system.cpu0.fetch.rateDist::4                  521098      1.71%     86.58% # Number of instructions fetched each cycle (Total)
system.cpu0.fetch.rateDist::5                  270760      0.89%     87.47% # Number of instructions fetched each cycle (Total)
system.cpu0.fetch.rateDist::6                  354838      1.16%     88.63% # Number of instructions fetched each cycle (Total)
system.cpu0.fetch.rateDist::7                   91272      0.30%     88.93% # Number of instructions fetched each cycle (Total)
system.cpu0.fetch.rateDist::8                 3380317     11.07%    100.00% # Number of instructions fetched each cycle (Total)
system.cpu0.fetch.rateDist::overflows               0      0.00%    100.00% # Number of instructions fetched each cycle (Total)
system.cpu0.fetch.rateDist::min_value               0                       # Number of instructions fetched each cycle (Total)
system.cpu0.fetch.rateDist::max_value               8                       # Number of instructions fetched each cycle (Total)
system.cpu0.fetch.rateDist::total            30533910                       # Number of instructions fetched each cycle (Total)
system.cpu0.fetch.branchRate                 0.217899                       # Number of branch fetches per cycle
system.cpu0.fetch.rate                       0.636340                       # Number of inst fetches per cycle
system.cpu0.decode.IdleCycles                 2973285                       # Number of cycles decode is idle
system.cpu0.decode.BlockedCycles             22131748                       # Number of cycles decode is blocked
system.cpu0.decode.RunCycles                  3876196                       # Number of cycles decode is running
system.cpu0.decode.UnblockCycles              1265595                       # Number of cycles decode is unblocking
system.cpu0.decode.SquashCycles                287086                       # Number of cycles decode is squashing
system.cpu0.decode.DecodedInsts              33356271                       # Number of instructions handled by decode
system.cpu0.rename.SquashCycles                287086                       # Number of cycles rename is squashing
system.cpu0.rename.IdleCycles                 3463439                       # Number of cycles rename is idle
system.cpu0.rename.BlockCycles               17704464                       # Number of cycles rename is blocking
system.cpu0.rename.serializeStallCycles        101482                       # count of cycles rename stalled for serializing inst
system.cpu0.rename.RunCycles                  4409666                       # Number of cycles rename is running
system.cpu0.rename.UnblockCycles              4567773                       # Number of cycles rename is unblocking
system.cpu0.rename.RenamedInsts              32030998                       # Number of instructions processed by rename
system.cpu0.rename.ROBFullEvents                82192                       # Number of times rename has blocked due to ROB full
system.cpu0.rename.IQFullEvents               4015197                       # Number of times rename has blocked due to IQ full
system.cpu0.rename.LQFullEvents                 89104                       # Number of times rename has blocked due to LQ full
system.cpu0.rename.SQFullEvents                226298                       # Number of times rename has blocked due to SQ full
system.cpu0.rename.RenamedOperands           38220890                       # Number of destination operands rename has renamed
system.cpu0.rename.RenameLookups             89138599                       # Number of register rename lookups that rename has made
system.cpu0.rename.int_rename_lookups        42145607                       # Number of integer rename lookups
system.cpu0.rename.fp_rename_lookups           195695                       # Number of floating rename lookups
system.cpu0.rename.CommittedMaps             14989060                       # Number of HB maps that are committed
system.cpu0.rename.UndoneMaps                23231825                       # Number of HB maps that are undone due to squashing
system.cpu0.rename.serializingInsts              1404                       # count of serializing insts renamed
system.cpu0.rename.tempSerializingInsts          1646                       # count of temporary serializing insts renamed
system.cpu0.rename.skidInsts                  7990638                       # count of insts added to the skid buffer
system.cpu0.memDep0.insertedLoads             5693099                       # Number of loads inserted to the mem dependence unit.
system.cpu0.memDep0.insertedStores             349508                       # Number of stores inserted to the mem dependence unit.
system.cpu0.memDep0.conflictingLoads            24165                       # Number of conflicting loads.
system.cpu0.memDep0.conflictingStores           22666                       # Number of conflicting stores.
system.cpu0.iq.iqInstsAdded                  30332309                       # Number of instructions added to the IQ (excludes non-spec)
system.cpu0.iq.iqNonSpecInstsAdded              20093                       # Number of non-speculative instructions added to the IQ
system.cpu0.iq.iqInstsIssued                 22236149                       # Number of instructions issued
system.cpu0.iq.iqSquashedInstsIssued            36346                       # Number of squashed instructions issued
system.cpu0.iq.iqSquashedInstsExamined       17863071                       # Number of squashed instructions iterated over during squash; mainly for profiling
system.cpu0.iq.iqSquashedOperandsExamined     37404514                       # Number of squashed operands that are examined and possibly removed from graph
system.cpu0.iq.iqSquashedNonSpecRemoved         20092                       # Number of squashed non-spec instructions that were removed
system.cpu0.iq.issued_per_cycle::samples     30533910                       # Number of insts issued each cycle
system.cpu0.iq.issued_per_cycle::mean        0.728244                       # Number of insts issued each cycle
system.cpu0.iq.issued_per_cycle::stdev       1.452273                       # Number of insts issued each cycle
system.cpu0.iq.issued_per_cycle::underflows            0      0.00%      0.00% # Number of insts issued each cycle
system.cpu0.iq.issued_per_cycle::0           21835494     71.51%     71.51% # Number of insts issued each cycle
system.cpu0.iq.issued_per_cycle::1            3148465     10.31%     81.82% # Number of insts issued each cycle
system.cpu0.iq.issued_per_cycle::2            1873732      6.14%     87.96% # Number of insts issued each cycle
system.cpu0.iq.issued_per_cycle::3            1350496      4.42%     92.38% # Number of insts issued each cycle
system.cpu0.iq.issued_per_cycle::4            1264630      4.14%     96.52% # Number of insts issued each cycle
system.cpu0.iq.issued_per_cycle::5             469989      1.54%     98.06% # Number of insts issued each cycle
system.cpu0.iq.issued_per_cycle::6             354259      1.16%     99.22% # Number of insts issued each cycle
system.cpu0.iq.issued_per_cycle::7             140047      0.46%     99.68% # Number of insts issued each cycle
system.cpu0.iq.issued_per_cycle::8              96798      0.32%    100.00% # Number of insts issued each cycle
system.cpu0.iq.issued_per_cycle::overflows            0      0.00%    100.00% # Number of insts issued each cycle
system.cpu0.iq.issued_per_cycle::min_value            0                       # Number of insts issued each cycle
system.cpu0.iq.issued_per_cycle::max_value            8                       # Number of insts issued each cycle
system.cpu0.iq.issued_per_cycle::total       30533910                       # Number of insts issued each cycle
system.cpu0.iq.fu_full::No_OpClass                  0      0.00%      0.00% # attempts to use FU when none available
system.cpu0.iq.fu_full::IntAlu                  62785     72.33%     72.33% # attempts to use FU when none available
system.cpu0.iq.fu_full::IntMult                     0      0.00%     72.33% # attempts to use FU when none available
system.cpu0.iq.fu_full::IntDiv                      0      0.00%     72.33% # attempts to use FU when none available
system.cpu0.iq.fu_full::FloatAdd                 5647      6.51%     78.83% # attempts to use FU when none available
system.cpu0.iq.fu_full::FloatCmp                    0      0.00%     78.83% # attempts to use FU when none available
system.cpu0.iq.fu_full::FloatCvt                    0      0.00%     78.83% # attempts to use FU when none available
system.cpu0.iq.fu_full::FloatMult                   0      0.00%     78.83% # attempts to use FU when none available
system.cpu0.iq.fu_full::FloatMultAcc                0      0.00%     78.83% # attempts to use FU when none available
system.cpu0.iq.fu_full::FloatDiv                    0      0.00%     78.83% # attempts to use FU when none available
system.cpu0.iq.fu_full::FloatMisc                   0      0.00%     78.83% # attempts to use FU when none available
system.cpu0.iq.fu_full::FloatSqrt                   0      0.00%     78.83% # attempts to use FU when none available
system.cpu0.iq.fu_full::SimdAdd                     0      0.00%     78.83% # attempts to use FU when none available
system.cpu0.iq.fu_full::SimdAddAcc                  0      0.00%     78.83% # attempts to use FU when none available
system.cpu0.iq.fu_full::SimdAlu                     0      0.00%     78.83% # attempts to use FU when none available
system.cpu0.iq.fu_full::SimdCmp                     0      0.00%     78.83% # attempts to use FU when none available
system.cpu0.iq.fu_full::SimdCvt                     0      0.00%     78.83% # attempts to use FU when none available
system.cpu0.iq.fu_full::SimdMisc                    0      0.00%     78.83% # attempts to use FU when none available
system.cpu0.iq.fu_full::SimdMult                    0      0.00%     78.83% # attempts to use FU when none available
system.cpu0.iq.fu_full::SimdMultAcc                 0      0.00%     78.83% # attempts to use FU when none available
system.cpu0.iq.fu_full::SimdShift                   0      0.00%     78.83% # attempts to use FU when none available
system.cpu0.iq.fu_full::SimdShiftAcc                0      0.00%     78.83% # attempts to use FU when none available
system.cpu0.iq.fu_full::SimdSqrt                    0      0.00%     78.83% # attempts to use FU when none available
system.cpu0.iq.fu_full::SimdFloatAdd                0      0.00%     78.83% # attempts to use FU when none available
system.cpu0.iq.fu_full::SimdFloatAlu                0      0.00%     78.83% # attempts to use FU when none available
system.cpu0.iq.fu_full::SimdFloatCmp                0      0.00%     78.83% # attempts to use FU when none available
system.cpu0.iq.fu_full::SimdFloatCvt                0      0.00%     78.83% # attempts to use FU when none available
system.cpu0.iq.fu_full::SimdFloatDiv                0      0.00%     78.83% # attempts to use FU when none available
system.cpu0.iq.fu_full::SimdFloatMisc               0      0.00%     78.83% # attempts to use FU when none available
system.cpu0.iq.fu_full::SimdFloatMult               0      0.00%     78.83% # attempts to use FU when none available
system.cpu0.iq.fu_full::SimdFloatMultAcc            0      0.00%     78.83% # attempts to use FU when none available
system.cpu0.iq.fu_full::SimdFloatSqrt               0      0.00%     78.83% # attempts to use FU when none available
system.cpu0.iq.fu_full::MemRead                 16221     18.69%     97.52% # attempts to use FU when none available
system.cpu0.iq.fu_full::MemWrite                 1317      1.52%     99.04% # attempts to use FU when none available
system.cpu0.iq.fu_full::FloatMemRead              726      0.84%     99.87% # attempts to use FU when none available
system.cpu0.iq.fu_full::FloatMemWrite             111      0.13%    100.00% # attempts to use FU when none available
system.cpu0.iq.fu_full::IprAccess                   0      0.00%    100.00% # attempts to use FU when none available
system.cpu0.iq.fu_full::InstPrefetch                0      0.00%    100.00% # attempts to use FU when none available
system.cpu0.iq.FU_type_0::No_OpClass            74652      0.34%      0.34% # Type of FU issued
system.cpu0.iq.FU_type_0::IntAlu             18221643     81.95%     82.28% # Type of FU issued
system.cpu0.iq.FU_type_0::IntMult                4240      0.02%     82.30% # Type of FU issued
system.cpu0.iq.FU_type_0::IntDiv                51235      0.23%     82.53% # Type of FU issued
system.cpu0.iq.FU_type_0::FloatAdd              72573      0.33%     82.86% # Type of FU issued
system.cpu0.iq.FU_type_0::FloatCmp                  0      0.00%     82.86% # Type of FU issued
system.cpu0.iq.FU_type_0::FloatCvt                  0      0.00%     82.86% # Type of FU issued
system.cpu0.iq.FU_type_0::FloatMult                 0      0.00%     82.86% # Type of FU issued
system.cpu0.iq.FU_type_0::FloatMultAcc              0      0.00%     82.86% # Type of FU issued
system.cpu0.iq.FU_type_0::FloatDiv                  0      0.00%     82.86% # Type of FU issued
system.cpu0.iq.FU_type_0::FloatMisc                 0      0.00%     82.86% # Type of FU issued
system.cpu0.iq.FU_type_0::FloatSqrt                 0      0.00%     82.86% # Type of FU issued
system.cpu0.iq.FU_type_0::SimdAdd                   0      0.00%     82.86% # Type of FU issued
system.cpu0.iq.FU_type_0::SimdAddAcc                0      0.00%     82.86% # Type of FU issued
system.cpu0.iq.FU_type_0::SimdAlu                   0      0.00%     82.86% # Type of FU issued
system.cpu0.iq.FU_type_0::SimdCmp                   0      0.00%     82.86% # Type of FU issued
system.cpu0.iq.FU_type_0::SimdCvt                   0      0.00%     82.86% # Type of FU issued
system.cpu0.iq.FU_type_0::SimdMisc                  0      0.00%     82.86% # Type of FU issued
system.cpu0.iq.FU_type_0::SimdMult                  0      0.00%     82.86% # Type of FU issued
system.cpu0.iq.FU_type_0::SimdMultAcc               0      0.00%     82.86% # Type of FU issued
system.cpu0.iq.FU_type_0::SimdShift                 0      0.00%     82.86% # Type of FU issued
system.cpu0.iq.FU_type_0::SimdShiftAcc              0      0.00%     82.86% # Type of FU issued
system.cpu0.iq.FU_type_0::SimdSqrt                  0      0.00%     82.86% # Type of FU issued
system.cpu0.iq.FU_type_0::SimdFloatAdd              0      0.00%     82.86% # Type of FU issued
system.cpu0.iq.FU_type_0::SimdFloatAlu              0      0.00%     82.86% # Type of FU issued
system.cpu0.iq.FU_type_0::SimdFloatCmp              0      0.00%     82.86% # Type of FU issued
system.cpu0.iq.FU_type_0::SimdFloatCvt              0      0.00%     82.86% # Type of FU issued
system.cpu0.iq.FU_type_0::SimdFloatDiv              0      0.00%     82.86% # Type of FU issued
system.cpu0.iq.FU_type_0::SimdFloatMisc             0      0.00%     82.86% # Type of FU issued
system.cpu0.iq.FU_type_0::SimdFloatMult             0      0.00%     82.86% # Type of FU issued
system.cpu0.iq.FU_type_0::SimdFloatMultAcc            0      0.00%     82.86% # Type of FU issued
system.cpu0.iq.FU_type_0::SimdFloatSqrt             0      0.00%     82.86% # Type of FU issued
system.cpu0.iq.FU_type_0::MemRead             3537286     15.91%     98.77% # Type of FU issued
system.cpu0.iq.FU_type_0::MemWrite             259566      1.17%     99.93% # Type of FU issued
system.cpu0.iq.FU_type_0::FloatMemRead          14523      0.07%    100.00% # Type of FU issued
system.cpu0.iq.FU_type_0::FloatMemWrite           431      0.00%    100.00% # Type of FU issued
system.cpu0.iq.FU_type_0::IprAccess                 0      0.00%    100.00% # Type of FU issued
system.cpu0.iq.FU_type_0::InstPrefetch              0      0.00%    100.00% # Type of FU issued
system.cpu0.iq.FU_type_0::total              22236149                       # Type of FU issued
system.cpu0.iq.rate                          0.728226                       # Inst issue rate
system.cpu0.iq.fu_busy_cnt                      86807                       # FU busy when requested
system.cpu0.iq.fu_busy_rate                  0.003904                       # FU busy rate (busy events/executed inst)
system.cpu0.iq.int_inst_queue_reads          74946619                       # Number of integer instruction queue reads
system.cpu0.iq.int_inst_queue_writes         48050206                       # Number of integer instruction queue writes
system.cpu0.iq.int_inst_queue_wakeup_accesses     21265811                       # Number of integer instruction queue wakeup accesses
system.cpu0.iq.fp_inst_queue_reads             182742                       # Number of floating instruction queue reads
system.cpu0.iq.fp_inst_queue_writes            165288                       # Number of floating instruction queue writes
system.cpu0.iq.fp_inst_queue_wakeup_accesses        79914                       # Number of floating instruction queue wakeup accesses
system.cpu0.iq.vec_inst_queue_reads                 0                       # Number of vector instruction queue reads
system.cpu0.iq.vec_inst_queue_writes                0                       # Number of vector instruction queue writes
system.cpu0.iq.vec_inst_queue_wakeup_accesses            0                       # Number of vector instruction queue wakeup accesses
system.cpu0.iq.int_alu_accesses              22154235                       # Number of integer alu accesses
system.cpu0.iq.fp_alu_accesses                  94069                       # Number of floating point alu accesses
system.cpu0.iq.vec_alu_accesses                     0                       # Number of vector alu accesses
system.cpu0.iew.lsq.thread0.forwLoads           29258                       # Number of loads that had data forwarded from stores
system.cpu0.iew.lsq.thread0.invAddrLoads            0                       # Number of loads ignored due to an invalid address
system.cpu0.iew.lsq.thread0.squashedLoads      3374669                       # Number of loads squashed
system.cpu0.iew.lsq.thread0.ignoredResponses          659                       # Number of memory responses ignored because the instruction is squashed
system.cpu0.iew.lsq.thread0.memOrderViolation           27                       # Number of memory ordering violations
system.cpu0.iew.lsq.thread0.squashedStores       196754                       # Number of stores squashed
system.cpu0.iew.lsq.thread0.invAddrSwpfs            0                       # Number of software prefetches ignored due to an invalid address
system.cpu0.iew.lsq.thread0.blockedLoads            0                       # Number of blocked loads due to partial load-store forwarding
system.cpu0.iew.lsq.thread0.rescheduledLoads          266                       # Number of loads that were rescheduled
system.cpu0.iew.lsq.thread0.cacheBlocked        10286                       # Number of times an access to memory failed due to the cache being blocked
system.cpu0.iew.iewIdleCycles                       0                       # Number of cycles IEW is idle
system.cpu0.iew.iewSquashCycles                287086                       # Number of cycles IEW is squashing
system.cpu0.iew.iewBlockCycles               14435011                       # Number of cycles IEW is blocking
system.cpu0.iew.iewUnblockCycles               721507                       # Number of cycles IEW is unblocking
system.cpu0.iew.iewDispatchedInsts           30352402                       # Number of instructions dispatched to IQ
system.cpu0.iew.iewDispSquashedInsts            17933                       # Number of squashed instructions skipped by dispatch
system.cpu0.iew.iewDispLoadInsts              5693099                       # Number of dispatched load instructions
system.cpu0.iew.iewDispStoreInsts              349508                       # Number of dispatched store instructions
system.cpu0.iew.iewDispNonSpecInsts              7509                       # Number of dispatched non-speculative instructions
system.cpu0.iew.iewIQFullEvents                 26559                       # Number of times the IQ has become full, causing a stall
system.cpu0.iew.iewLSQFullEvents                44194                       # Number of times the LSQ has become full, causing a stall
system.cpu0.iew.memOrderViolationEvents            27                       # Number of memory order violations
system.cpu0.iew.predictedTakenIncorrect        156147                       # Number of branches that were predicted taken incorrectly
system.cpu0.iew.predictedNotTakenIncorrect       163986                       # Number of branches that were predicted not taken incorrectly
system.cpu0.iew.branchMispredicts              320133                       # Number of branch mispredicts detected at execute
system.cpu0.iew.iewExecutedInsts             21767917                       # Number of executed instructions
system.cpu0.iew.iewExecLoadInsts              3356426                       # Number of load instructions executed
system.cpu0.iew.iewExecSquashedInsts           468232                       # Number of squashed instructions skipped in execute
system.cpu0.iew.exec_swp                            0                       # number of swp insts executed
system.cpu0.iew.exec_nop                            0                       # number of nop insts executed
system.cpu0.iew.exec_refs                     3598414                       # number of memory reference insts executed
system.cpu0.iew.exec_branches                 2702715                       # Number of branches executed
system.cpu0.iew.exec_stores                    241988                       # Number of stores executed
system.cpu0.iew.exec_rate                    0.712891                       # Inst execution rate
system.cpu0.iew.wb_sent                      21421684                       # cumulative count of insts sent to commit
system.cpu0.iew.wb_count                     21345725                       # cumulative count of insts written-back
system.cpu0.iew.wb_producers                 15721728                       # num instructions producing a value
system.cpu0.iew.wb_consumers                 25449619                       # num instructions consuming a value
system.cpu0.iew.wb_rate                      0.699065                       # insts written-back per cycle
system.cpu0.iew.wb_fanout                    0.617759                       # average fanout of values written-back
system.cpu0.commit.commitSquashedInsts       17864506                       # The number of squashed insts skipped by commit
system.cpu0.commit.commitNonSpecStalls              1                       # The number of times commit has been forced to stall to communicate backwards
system.cpu0.commit.branchMispredicts           287075                       # The number of times a branch was mispredicted
system.cpu0.commit.committed_per_cycle::samples     28009864                       # Number of insts commited each cycle
system.cpu0.commit.committed_per_cycle::mean     0.445890                       # Number of insts commited each cycle
system.cpu0.commit.committed_per_cycle::stdev     1.158387                       # Number of insts commited each cycle
system.cpu0.commit.committed_per_cycle::underflows            0      0.00%      0.00% # Number of insts commited each cycle
system.cpu0.commit.committed_per_cycle::0     22571147     80.58%     80.58% # Number of insts commited each cycle
system.cpu0.commit.committed_per_cycle::1      2481730      8.86%     89.44% # Number of insts commited each cycle
system.cpu0.commit.committed_per_cycle::2       625575      2.23%     91.68% # Number of insts commited each cycle
system.cpu0.commit.committed_per_cycle::3      1661565      5.93%     97.61% # Number of insts commited each cycle
system.cpu0.commit.committed_per_cycle::4       266046      0.95%     98.56% # Number of insts commited each cycle
system.cpu0.commit.committed_per_cycle::5       151287      0.54%     99.10% # Number of insts commited each cycle
system.cpu0.commit.committed_per_cycle::6        25482      0.09%     99.19% # Number of insts commited each cycle
system.cpu0.commit.committed_per_cycle::7        18015      0.06%     99.25% # Number of insts commited each cycle
system.cpu0.commit.committed_per_cycle::8       209017      0.75%    100.00% # Number of insts commited each cycle
system.cpu0.commit.committed_per_cycle::overflows            0      0.00%    100.00% # Number of insts commited each cycle
system.cpu0.commit.committed_per_cycle::min_value            0                       # Number of insts commited each cycle
system.cpu0.commit.committed_per_cycle::max_value            8                       # Number of insts commited each cycle
system.cpu0.commit.committed_per_cycle::total     28009864                       # Number of insts commited each cycle
system.cpu0.commit.committedInsts             6254856                       # Number of instructions committed
system.cpu0.commit.committedOps              12489327                       # Number of ops (including micro ops) committed
system.cpu0.commit.swp_count                        0                       # Number of s/w prefetches committed
system.cpu0.commit.refs                       2471183                       # Number of memory references committed
system.cpu0.commit.loads                      2318429                       # Number of loads committed
system.cpu0.commit.membars                          0                       # Number of memory barriers committed
system.cpu0.commit.branches                   2216066                       # Number of branches committed
system.cpu0.commit.vec_insts                        0                       # Number of committed Vector instructions.
system.cpu0.commit.fp_insts                     61536                       # Number of committed floating point instructions.
system.cpu0.commit.int_insts                 12427417                       # Number of committed integer instructions.
system.cpu0.commit.function_calls               26929                       # Number of function calls committed.
system.cpu0.commit.op_class_0::No_OpClass        18421      0.15%      0.15% # Class of committed instruction
system.cpu0.commit.op_class_0::IntAlu         9901529     79.28%     79.43% # Class of committed instruction
system.cpu0.commit.op_class_0::IntMult           1077      0.01%     79.44% # Class of committed instruction
system.cpu0.commit.op_class_0::IntDiv           44605      0.36%     79.79% # Class of committed instruction
system.cpu0.commit.op_class_0::FloatAdd         52512      0.42%     80.21% # Class of committed instruction
system.cpu0.commit.op_class_0::FloatCmp             0      0.00%     80.21% # Class of committed instruction
system.cpu0.commit.op_class_0::FloatCvt             0      0.00%     80.21% # Class of committed instruction
system.cpu0.commit.op_class_0::FloatMult            0      0.00%     80.21% # Class of committed instruction
system.cpu0.commit.op_class_0::FloatMultAcc            0      0.00%     80.21% # Class of committed instruction
system.cpu0.commit.op_class_0::FloatDiv             0      0.00%     80.21% # Class of committed instruction
system.cpu0.commit.op_class_0::FloatMisc            0      0.00%     80.21% # Class of committed instruction
system.cpu0.commit.op_class_0::FloatSqrt            0      0.00%     80.21% # Class of committed instruction
system.cpu0.commit.op_class_0::SimdAdd              0      0.00%     80.21% # Class of committed instruction
system.cpu0.commit.op_class_0::SimdAddAcc            0      0.00%     80.21% # Class of committed instruction
system.cpu0.commit.op_class_0::SimdAlu              0      0.00%     80.21% # Class of committed instruction
system.cpu0.commit.op_class_0::SimdCmp              0      0.00%     80.21% # Class of committed instruction
system.cpu0.commit.op_class_0::SimdCvt              0      0.00%     80.21% # Class of committed instruction
system.cpu0.commit.op_class_0::SimdMisc             0      0.00%     80.21% # Class of committed instruction
system.cpu0.commit.op_class_0::SimdMult             0      0.00%     80.21% # Class of committed instruction
system.cpu0.commit.op_class_0::SimdMultAcc            0      0.00%     80.21% # Class of committed instruction
system.cpu0.commit.op_class_0::SimdShift            0      0.00%     80.21% # Class of committed instruction
system.cpu0.commit.op_class_0::SimdShiftAcc            0      0.00%     80.21% # Class of committed instruction
system.cpu0.commit.op_class_0::SimdSqrt             0      0.00%     80.21% # Class of committed instruction
system.cpu0.commit.op_class_0::SimdFloatAdd            0      0.00%     80.21% # Class of committed instruction
system.cpu0.commit.op_class_0::SimdFloatAlu            0      0.00%     80.21% # Class of committed instruction
system.cpu0.commit.op_class_0::SimdFloatCmp            0      0.00%     80.21% # Class of committed instruction
system.cpu0.commit.op_class_0::SimdFloatCvt            0      0.00%     80.21% # Class of committed instruction
system.cpu0.commit.op_class_0::SimdFloatDiv            0      0.00%     80.21% # Class of committed instruction
system.cpu0.commit.op_class_0::SimdFloatMisc            0      0.00%     80.21% # Class of committed instruction
system.cpu0.commit.op_class_0::SimdFloatMult            0      0.00%     80.21% # Class of committed instruction
system.cpu0.commit.op_class_0::SimdFloatMultAcc            0      0.00%     80.21% # Class of committed instruction
system.cpu0.commit.op_class_0::SimdFloatSqrt            0      0.00%     80.21% # Class of committed instruction
system.cpu0.commit.op_class_0::MemRead        2309405     18.49%     98.70% # Class of committed instruction
system.cpu0.commit.op_class_0::MemWrite        152754      1.22%     99.93% # Class of committed instruction
system.cpu0.commit.op_class_0::FloatMemRead         9024      0.07%    100.00% # Class of committed instruction
system.cpu0.commit.op_class_0::FloatMemWrite            0      0.00%    100.00% # Class of committed instruction
system.cpu0.commit.op_class_0::IprAccess            0      0.00%    100.00% # Class of committed instruction
system.cpu0.commit.op_class_0::InstPrefetch            0      0.00%    100.00% # Class of committed instruction
system.cpu0.commit.op_class_0::total         12489327                       # Class of committed instruction
system.cpu0.commit.bw_lim_events               209017                       # number cycles where commit BW limit reached
system.cpu0.rob.rob_reads                    58154680                       # The number of ROB reads
system.cpu0.rob.rob_writes                   63239987                       # The number of ROB writes
system.cpu0.timesIdled                            215                       # Number of times that the entire CPU went into an idle state and unscheduled itself
system.cpu0.idleCycles                            779                       # Total number of cycles that the CPU has spent unscheduled due to idling
system.cpu0.committedInsts                    6254856                       # Number of Instructions Simulated
system.cpu0.committedOps                     12489327                       # Number of Ops (including micro ops) Simulated
system.cpu0.cpi                              4.881757                       # CPI: Cycles Per Instruction
system.cpu0.cpi_total                        4.881757                       # CPI: Total CPI of All Threads
system.cpu0.ipc                              0.204844                       # IPC: Instructions Per Cycle
system.cpu0.ipc_total                        0.204844                       # IPC: Total IPC of All Threads
system.cpu0.int_regfile_reads                22404710                       # number of integer regfile reads
system.cpu0.int_regfile_writes               18439025                       # number of integer regfile writes
system.cpu0.fp_regfile_reads                   141436                       # number of floating regfile reads
system.cpu0.fp_regfile_writes                   70623                       # number of floating regfile writes
system.cpu0.cc_regfile_reads                 14412853                       # number of cc regfile reads
system.cpu0.cc_regfile_writes                 6149872                       # number of cc regfile writes
system.cpu0.misc_regfile_reads               11438097                       # number of misc regfile reads
system.cpu0.dcache.tags.pwrStateResidencyTicks::UNDEFINED  15267344125                       # Cumulative time (in ticks) in various power states
system.cpu0.dcache.tags.replacements          1218270                       # number of replacements
system.cpu0.dcache.tags.tagsinuse                 512                       # Cycle average of tags in use
system.cpu0.dcache.tags.total_refs            1416301                       # Total number of references to valid blocks.
system.cpu0.dcache.tags.sampled_refs          1218270                       # Sample count of references to valid blocks.
system.cpu0.dcache.tags.avg_refs             1.162551                       # Average number of references to valid blocks.
system.cpu0.dcache.tags.warmup_cycle                0                       # Cycle when the warmup percentage was hit.
system.cpu0.dcache.tags.occ_blocks::cpu0.data          512                       # Average occupied blocks per requestor
system.cpu0.dcache.tags.occ_percent::cpu0.data            1                       # Average percentage of cache occupancy
system.cpu0.dcache.tags.occ_percent::total            1                       # Average percentage of cache occupancy
system.cpu0.dcache.tags.occ_task_id_blocks::1024          512                       # Occupied blocks per task id
system.cpu0.dcache.tags.age_task_id_blocks_1024::0          471                       # Occupied blocks per task id
system.cpu0.dcache.tags.age_task_id_blocks_1024::1           41                       # Occupied blocks per task id
system.cpu0.dcache.tags.occ_task_id_percent::1024            1                       # Percentage of cache occupancy per task id
system.cpu0.dcache.tags.tag_accesses         15045022                       # Number of tag accesses
system.cpu0.dcache.tags.data_accesses        15045022                       # Number of data accesses
system.cpu0.dcache.pwrStateResidencyTicks::UNDEFINED  15267344125                       # Cumulative time (in ticks) in various power states
system.cpu0.dcache.ReadReq_hits::cpu0.data      1271302                       # number of ReadReq hits
system.cpu0.dcache.ReadReq_hits::total        1271302                       # number of ReadReq hits
system.cpu0.dcache.WriteReq_hits::cpu0.data       146040                       # number of WriteReq hits
system.cpu0.dcache.WriteReq_hits::total        146040                       # number of WriteReq hits
system.cpu0.dcache.demand_hits::cpu0.data      1417342                       # number of demand (read+write) hits
system.cpu0.dcache.demand_hits::total         1417342                       # number of demand (read+write) hits
system.cpu0.dcache.overall_hits::cpu0.data      1417342                       # number of overall hits
system.cpu0.dcache.overall_hits::total        1417342                       # number of overall hits
system.cpu0.dcache.ReadReq_misses::cpu0.data      2032632                       # number of ReadReq misses
system.cpu0.dcache.ReadReq_misses::total      2032632                       # number of ReadReq misses
system.cpu0.dcache.WriteReq_misses::cpu0.data         6714                       # number of WriteReq misses
system.cpu0.dcache.WriteReq_misses::total         6714                       # number of WriteReq misses
system.cpu0.dcache.demand_misses::cpu0.data      2039346                       # number of demand (read+write) misses
system.cpu0.dcache.demand_misses::total       2039346                       # number of demand (read+write) misses
system.cpu0.dcache.overall_misses::cpu0.data      2039346                       # number of overall misses
system.cpu0.dcache.overall_misses::total      2039346                       # number of overall misses
system.cpu0.dcache.ReadReq_miss_latency::cpu0.data  28009625500                       # number of ReadReq miss cycles
system.cpu0.dcache.ReadReq_miss_latency::total  28009625500                       # number of ReadReq miss cycles
system.cpu0.dcache.WriteReq_miss_latency::cpu0.data    433353475                       # number of WriteReq miss cycles
system.cpu0.dcache.WriteReq_miss_latency::total    433353475                       # number of WriteReq miss cycles
system.cpu0.dcache.demand_miss_latency::cpu0.data  28442978975                       # number of demand (read+write) miss cycles
system.cpu0.dcache.demand_miss_latency::total  28442978975                       # number of demand (read+write) miss cycles
system.cpu0.dcache.overall_miss_latency::cpu0.data  28442978975                       # number of overall miss cycles
system.cpu0.dcache.overall_miss_latency::total  28442978975                       # number of overall miss cycles
system.cpu0.dcache.ReadReq_accesses::cpu0.data      3303934                       # number of ReadReq accesses(hits+misses)
system.cpu0.dcache.ReadReq_accesses::total      3303934                       # number of ReadReq accesses(hits+misses)
system.cpu0.dcache.WriteReq_accesses::cpu0.data       152754                       # number of WriteReq accesses(hits+misses)
system.cpu0.dcache.WriteReq_accesses::total       152754                       # number of WriteReq accesses(hits+misses)
system.cpu0.dcache.demand_accesses::cpu0.data      3456688                       # number of demand (read+write) accesses
system.cpu0.dcache.demand_accesses::total      3456688                       # number of demand (read+write) accesses
system.cpu0.dcache.overall_accesses::cpu0.data      3456688                       # number of overall (read+write) accesses
system.cpu0.dcache.overall_accesses::total      3456688                       # number of overall (read+write) accesses
system.cpu0.dcache.ReadReq_miss_rate::cpu0.data     0.615216                       # miss rate for ReadReq accesses
system.cpu0.dcache.ReadReq_miss_rate::total     0.615216                       # miss rate for ReadReq accesses
system.cpu0.dcache.WriteReq_miss_rate::cpu0.data     0.043953                       # miss rate for WriteReq accesses
system.cpu0.dcache.WriteReq_miss_rate::total     0.043953                       # miss rate for WriteReq accesses
system.cpu0.dcache.demand_miss_rate::cpu0.data     0.589971                       # miss rate for demand accesses
system.cpu0.dcache.demand_miss_rate::total     0.589971                       # miss rate for demand accesses
system.cpu0.dcache.overall_miss_rate::cpu0.data     0.589971                       # miss rate for overall accesses
[...]
system.l2.demand_miss_rate::cpu0.data        0.002508                       # miss rate for demand accesses
system.l2.demand_miss_rate::total            0.002510                       # miss rate for demand accesses
system.l2.overall_miss_rate::cpu0.inst       0.051282                       # miss rate for overall accesses
system.l2.overall_miss_rate::cpu0.data       0.002508                       # miss rate for overall accesses
system.l2.overall_miss_rate::total           0.002510                       # miss rate for overall accesses
system.l2.ReadExReq_avg_miss_latency::cpu0.data 243366.825613                       # average ReadExReq miss latency
system.l2.ReadExReq_avg_miss_latency::total 243366.825613                       # average ReadExReq miss latency
system.l2.ReadCleanReq_avg_miss_latency::cpu0.inst       613750                       # average ReadCleanReq miss latency
system.l2.ReadCleanReq_avg_miss_latency::total       613750                       # average ReadCleanReq miss latency
system.l2.ReadSharedReq_avg_miss_latency::cpu0.data 228903.337531                       # average ReadSharedReq miss latency
system.l2.ReadSharedReq_avg_miss_latency::total 228903.337531                       # average ReadSharedReq miss latency
system.l2.demand_avg_miss_latency::cpu0.inst       613750                       # average overall miss latency
system.l2.demand_avg_miss_latency::cpu0.data 235851.112565                       # average overall miss latency
system.l2.demand_avg_miss_latency::total 236098.266841                       # average overall miss latency
system.l2.overall_avg_miss_latency::cpu0.inst       613750                       # average overall miss latency
system.l2.overall_avg_miss_latency::cpu0.data 235851.112565                       # average overall miss latency
system.l2.overall_avg_miss_latency::total 236098.266841                       # average overall miss latency
system.l2.blocked_cycles::no_mshrs                  0                       # number of cycles access was blocked
system.l2.blocked_cycles::no_targets                0                       # number of cycles access was blocked
system.l2.blocked::no_mshrs                         0                       # number of cycles access was blocked
system.l2.blocked::no_targets                       0                       # number of cycles access was blocked
system.l2.avg_blocked_cycles::no_mshrs            nan                       # average number of cycles each access was blocked
system.l2.avg_blocked_cycles::no_targets          nan                       # average number of cycles each access was blocked
system.l2.writebacks::writebacks                  184                       # number of writebacks
system.l2.writebacks::total                       184                       # number of writebacks
system.l2.ReadExReq_mshr_misses::cpu0.data         1468                       # number of ReadExReq MSHR misses
system.l2.ReadExReq_mshr_misses::total           1468                       # number of ReadExReq MSHR misses
system.l2.ReadCleanReq_mshr_misses::cpu0.inst            2                       # number of ReadCleanReq MSHR misses
system.l2.ReadCleanReq_mshr_misses::total            2                       # number of ReadCleanReq MSHR misses
system.l2.ReadSharedReq_mshr_misses::cpu0.data         1588                       # number of ReadSharedReq MSHR misses
system.l2.ReadSharedReq_mshr_misses::total         1588                       # number of ReadSharedReq MSHR misses
system.l2.demand_mshr_misses::cpu0.inst             2                       # number of demand (read+write) MSHR misses
system.l2.demand_mshr_misses::cpu0.data          3056                       # number of demand (read+write) MSHR misses
system.l2.demand_mshr_misses::total              3058                       # number of demand (read+write) MSHR misses
system.l2.overall_mshr_misses::cpu0.inst            2                       # number of overall MSHR misses
system.l2.overall_mshr_misses::cpu0.data         3056                       # number of overall MSHR misses
system.l2.overall_mshr_misses::total             3058                       # number of overall MSHR misses
system.l2.ReadExReq_mshr_miss_latency::cpu0.data    342582500                       # number of ReadExReq MSHR miss cycles
system.l2.ReadExReq_mshr_miss_latency::total    342582500                       # number of ReadExReq MSHR miss cycles
system.l2.ReadCleanReq_mshr_miss_latency::cpu0.inst      1207500                       # number of ReadCleanReq MSHR miss cycles
system.l2.ReadCleanReq_mshr_miss_latency::total      1207500                       # number of ReadCleanReq MSHR miss cycles
system.l2.ReadSharedReq_mshr_miss_latency::cpu0.data    347618500                       # number of ReadSharedReq MSHR miss cycles
system.l2.ReadSharedReq_mshr_miss_latency::total    347618500                       # number of ReadSharedReq MSHR miss cycles
system.l2.demand_mshr_miss_latency::cpu0.inst      1207500                       # number of demand (read+write) MSHR miss cycles
system.l2.demand_mshr_miss_latency::cpu0.data    690201000                       # number of demand (read+write) MSHR miss cycles
system.l2.demand_mshr_miss_latency::total    691408500                       # number of demand (read+write) MSHR miss cycles
system.l2.overall_mshr_miss_latency::cpu0.inst      1207500                       # number of overall MSHR miss cycles
system.l2.overall_mshr_miss_latency::cpu0.data    690201000                       # number of overall MSHR miss cycles
system.l2.overall_mshr_miss_latency::total    691408500                       # number of overall MSHR miss cycles
system.l2.ReadExReq_mshr_miss_rate::cpu0.data     0.219432                       # mshr miss rate for ReadExReq accesses
system.l2.ReadExReq_mshr_miss_rate::total     0.219432                       # mshr miss rate for ReadExReq accesses
system.l2.ReadCleanReq_mshr_miss_rate::cpu0.inst     0.051282                       # mshr miss rate for ReadCleanReq accesses
system.l2.ReadCleanReq_mshr_miss_rate::total     0.051282                       # mshr miss rate for ReadCleanReq accesses
system.l2.ReadSharedReq_mshr_miss_rate::cpu0.data     0.001311                       # mshr miss rate for ReadSharedReq accesses
system.l2.ReadSharedReq_mshr_miss_rate::total     0.001311                       # mshr miss rate for ReadSharedReq accesses
system.l2.demand_mshr_miss_rate::cpu0.inst     0.051282                       # mshr miss rate for demand accesses
system.l2.demand_mshr_miss_rate::cpu0.data     0.002508                       # mshr miss rate for demand accesses
system.l2.demand_mshr_miss_rate::total       0.002510                       # mshr miss rate for demand accesses
system.l2.overall_mshr_miss_rate::cpu0.inst     0.051282                       # mshr miss rate for overall accesses
system.l2.overall_mshr_miss_rate::cpu0.data     0.002508                       # mshr miss rate for overall accesses
system.l2.overall_mshr_miss_rate::total      0.002510                       # mshr miss rate for overall accesses
system.l2.ReadExReq_avg_mshr_miss_latency::cpu0.data 233366.825613                       # average ReadExReq mshr miss latency
system.l2.ReadExReq_avg_mshr_miss_latency::total 233366.825613                       # average ReadExReq mshr miss latency
system.l2.ReadCleanReq_avg_mshr_miss_latency::cpu0.inst       603750                       # average ReadCleanReq mshr miss latency
system.l2.ReadCleanReq_avg_mshr_miss_latency::total       603750                       # average ReadCleanReq mshr miss latency
system.l2.ReadSharedReq_avg_mshr_miss_latency::cpu0.data 218903.337531                       # average ReadSharedReq mshr miss latency
system.l2.ReadSharedReq_avg_mshr_miss_latency::total 218903.337531                       # average ReadSharedReq mshr miss latency
system.l2.demand_avg_mshr_miss_latency::cpu0.inst       603750                       # average overall mshr miss latency
system.l2.demand_avg_mshr_miss_latency::cpu0.data 225851.112565                       # average overall mshr miss latency
system.l2.demand_avg_mshr_miss_latency::total 226098.266841                       # average overall mshr miss latency
system.l2.overall_avg_mshr_miss_latency::cpu0.inst       603750                       # average overall mshr miss latency
system.l2.overall_avg_mshr_miss_latency::cpu0.data 225851.112565                       # average overall mshr miss latency
system.l2.overall_avg_mshr_miss_latency::total 226098.266841                       # average overall mshr miss latency
system.membus.snoop_filter.tot_requests          6115                       # Total number of requests made to the snoop filter.
system.membus.snoop_filter.hit_single_requests         3057                       # Number of requests hitting in the snoop filter with a single holder of the requested data.
system.membus.snoop_filter.hit_multi_requests            0                       # Number of requests hitting in the snoop filter with multiple (>1) holders of the requested data.
system.membus.snoop_filter.tot_snoops               0                       # Total number of snoops made to the snoop filter.
system.membus.snoop_filter.hit_single_snoops            0                       # Number of snoops hitting in the snoop filter with a single holder of the requested data.
system.membus.snoop_filter.hit_multi_snoops            0                       # Number of snoops hitting in the snoop filter with multiple (>1) holders of the requested data.
system.membus.pwrStateResidencyTicks::UNDEFINED  15267344125                       # Cumulative time (in ticks) in various power states
system.membus.trans_dist::ReadResp               1590                       # Transaction distribution
system.membus.trans_dist::WritebackDirty          184                       # Transaction distribution
system.membus.trans_dist::CleanEvict             2873                       # Transaction distribution
system.membus.trans_dist::ReadExReq              1468                       # Transaction distribution
system.membus.trans_dist::ReadExResp             1468                       # Transaction distribution
system.membus.trans_dist::ReadSharedReq          1590                       # Transaction distribution
system.membus.pkt_count_system.l2.mem_side::system.mem_ctrls.port         9173                       # Packet count per connected master and slave (bytes)
system.membus.pkt_count_system.l2.mem_side::total         9173                       # Packet count per connected master and slave (bytes)
system.membus.pkt_count::total                   9173                       # Packet count per connected master and slave (bytes)
system.membus.pkt_size_system.l2.mem_side::system.mem_ctrls.port       207488                       # Cumulative packet size per connected master and slave (bytes)
system.membus.pkt_size_system.l2.mem_side::total       207488                       # Cumulative packet size per connected master and slave (bytes)
system.membus.pkt_size::total                  207488                       # Cumulative packet size per connected master and slave (bytes)
system.membus.snoops                                0                       # Total snoops (count)
system.membus.snoopTraffic                          0                       # Total snoop traffic (bytes)
system.membus.snoop_fanout::samples              3058                       # Request fanout histogram
system.membus.snoop_fanout::mean                    0                       # Request fanout histogram
system.membus.snoop_fanout::stdev                   0                       # Request fanout histogram
system.membus.snoop_fanout::underflows              0      0.00%      0.00% # Request fanout histogram
system.membus.snoop_fanout::0                    3058    100.00%    100.00% # Request fanout histogram
system.membus.snoop_fanout::1                       0      0.00%    100.00% # Request fanout histogram
system.membus.snoop_fanout::overflows               0      0.00%    100.00% # Request fanout histogram
system.membus.snoop_fanout::min_value               0                       # Request fanout histogram
system.membus.snoop_fanout::max_value               0                       # Request fanout histogram
system.membus.snoop_fanout::total                3058                       # Request fanout histogram
system.membus.reqLayer12.occupancy            7590500                       # Layer occupancy (ticks)
system.membus.reqLayer12.utilization              0.0                       # Layer utilization (%)
system.membus.respLayer1.occupancy           16675500                       # Layer occupancy (ticks)
system.membus.respLayer1.utilization              0.1                       # Layer utilization (%)
system.tol2bus.snoop_filter.tot_requests      2436617                       # Total number of requests made to the snoop filter.
system.tol2bus.snoop_filter.hit_single_requests      1218310                       # Number of requests hitting in the snoop filter with a single holder of the requested data.
system.tol2bus.snoop_filter.hit_multi_requests         3048                       # Number of requests hitting in the snoop filter with multiple (>1) holders of the requested data.
system.tol2bus.snoop_filter.tot_snoops              6                       # Total number of snoops made to the snoop filter.
system.tol2bus.snoop_filter.hit_single_snoops            6                       # Number of snoops hitting in the snoop filter with a single holder of the requested data.
system.tol2bus.snoop_filter.hit_multi_snoops            0                       # Number of snoops hitting in the snoop filter with multiple (>1) holders of the requested data.
system.tol2bus.pwrStateResidencyTicks::UNDEFINED  15267344125                       # Cumulative time (in ticks) in various power states
system.tol2bus.trans_dist::ReadResp           1211619                       # Transaction distribution
system.tol2bus.trans_dist::WritebackDirty      1201485                       # Transaction distribution
system.tol2bus.trans_dist::WritebackClean           39                       # Transaction distribution
system.tol2bus.trans_dist::CleanEvict           19847                       # Transaction distribution
system.tol2bus.trans_dist::ReadExReq             6690                       # Transaction distribution
system.tol2bus.trans_dist::ReadExResp            6690                       # Transaction distribution
system.tol2bus.trans_dist::ReadCleanReq            39                       # Transaction distribution
system.tol2bus.trans_dist::ReadSharedReq      1211579                       # Transaction distribution
system.tol2bus.pkt_count_system.cpu0.icache.mem_side::system.l2.cpu_side          117                       # Packet count per connected master and slave (bytes)
system.tol2bus.pkt_count_system.cpu0.dcache.mem_side::system.l2.cpu_side      3654809                       # Packet count per connected master and slave (bytes)
system.tol2bus.pkt_count::total               3654926                       # Packet count per connected master and slave (bytes)
system.tol2bus.pkt_size_system.cpu0.icache.mem_side::system.l2.cpu_side         4992                       # Cumulative packet size per connected master and slave (bytes)
system.tol2bus.pkt_size_system.cpu0.dcache.mem_side::system.l2.cpu_side    154852544                       # Cumulative packet size per connected master and slave (bytes)
system.tol2bus.pkt_size::total              154857536                       # Cumulative packet size per connected master and slave (bytes)
system.tol2bus.snoops                            3062                       # Total snoops (count)
system.tol2bus.snoopTraffic                     11776                       # Total snoop traffic (bytes)
system.tol2bus.snoop_fanout::samples          1221370                       # Request fanout histogram
system.tol2bus.snoop_fanout::mean            0.002501                       # Request fanout histogram
system.tol2bus.snoop_fanout::stdev           0.049950                       # Request fanout histogram
system.tol2bus.snoop_fanout::underflows             0      0.00%      0.00% # Request fanout histogram
system.tol2bus.snoop_fanout::0                1218315     99.75%     99.75% # Request fanout histogram
system.tol2bus.snoop_fanout::1                   3055      0.25%    100.00% # Request fanout histogram
system.tol2bus.snoop_fanout::2                      0      0.00%    100.00% # Request fanout histogram
system.tol2bus.snoop_fanout::3                      0      0.00%    100.00% # Request fanout histogram
system.tol2bus.snoop_fanout::4                      0      0.00%    100.00% # Request fanout histogram
system.tol2bus.snoop_fanout::5                      0      0.00%    100.00% # Request fanout histogram
system.tol2bus.snoop_fanout::6                      0      0.00%    100.00% # Request fanout histogram
system.tol2bus.snoop_fanout::7                      0      0.00%    100.00% # Request fanout histogram
system.tol2bus.snoop_fanout::8                      0      0.00%    100.00% # Request fanout histogram
system.tol2bus.snoop_fanout::9                      0      0.00%    100.00% # Request fanout histogram
system.tol2bus.snoop_fanout::10                     0      0.00%    100.00% # Request fanout histogram
system.tol2bus.snoop_fanout::11                     0      0.00%    100.00% # Request fanout histogram
system.tol2bus.snoop_fanout::12                     0      0.00%    100.00% # Request fanout histogram
system.tol2bus.snoop_fanout::13                     0      0.00%    100.00% # Request fanout histogram
system.tol2bus.snoop_fanout::14                     0      0.00%    100.00% # Request fanout histogram
system.tol2bus.snoop_fanout::15                     0      0.00%    100.00% # Request fanout histogram
system.tol2bus.snoop_fanout::16                     0      0.00%    100.00% # Request fanout histogram
system.tol2bus.snoop_fanout::17                     0      0.00%    100.00% # Request fanout histogram
system.tol2bus.snoop_fanout::18                     0      0.00%    100.00% # Request fanout histogram
system.tol2bus.snoop_fanout::19                     0      0.00%    100.00% # Request fanout histogram
system.tol2bus.snoop_fanout::20                     0      0.00%    100.00% # Request fanout histogram
system.tol2bus.snoop_fanout::21                     0      0.00%    100.00% # Request fanout histogram
system.tol2bus.snoop_fanout::22                     0      0.00%    100.00% # Request fanout histogram
system.tol2bus.snoop_fanout::23                     0      0.00%    100.00% # Request fanout histogram
system.tol2bus.snoop_fanout::24                     0      0.00%    100.00% # Request fanout histogram
system.tol2bus.snoop_fanout::overflows              0      0.00%    100.00% # Request fanout histogram
system.tol2bus.snoop_fanout::min_value              0                       # Request fanout histogram
system.tol2bus.snoop_fanout::max_value              1                       # Request fanout histogram
system.tol2bus.snoop_fanout::total            1221370                       # Request fanout histogram
system.tol2bus.reqLayer0.occupancy         2419648500                       # Layer occupancy (ticks)
system.tol2bus.reqLayer0.utilization             15.8                       # Layer utilization (%)
system.tol2bus.respLayer0.occupancy             58500                       # Layer occupancy (ticks)
system.tol2bus.respLayer0.utilization             0.0                       # Layer utilization (%)
system.tol2bus.respLayer1.occupancy        1827405000                       # Layer occupancy (ticks)
system.tol2bus.respLayer1.utilization            12.0                       # Layer utilization (%)

---------- End Simulation Statistics   ----------
