
---------- Begin Simulation Statistics ----------
sim_seconds                                  0.015267                       # Number of seconds simulated
sim_ticks                                 15267344125                       # Number of ticks simulated
final_tick                               3526756492875                       # Number of ticks from beginning of simulation (restored from checkpoints and never reset)
sim_freq                                 1000000000000                       # Frequency of simulated ticks
host_inst_rate                               52646421                       # Simulator instruction rate (inst/s)
host_op_rate                                 97914785                       # Simulator op (including micro ops) rate (op/s)
host_tick_rate                              137215659                       # Simulator tick rate (ticks/s)
host_mem_usage                                3428856                       # Number of bytes of host memory used
host_seconds                                   111.27                       # Real time elapsed on the host
sim_insts                                  5857719893                       # Number of instructions simulated
sim_ops                                   10894519055                       # Number of ops (including micro ops) simulated
system.voltage_domain.voltage                       1                       # Voltage in Volts
system.clk_domain.clock                          1000                       # Clock period in ticks
system.mem_ctrls.pwrStateResidencyTicks::UNDEFINED  15267344125                       # Cumulative time (in ticks) in various power states
system.mem_ctrls.bytes_read::cpu0.inst            192                       # Number of bytes read from this memory
system.mem_ctrls.bytes_read::cpu0.data         774272                       # Number of bytes read from this memory
system.mem_ctrls.bytes_read::total             774464                       # Number of bytes read from this memory
system.mem_ctrls.bytes_inst_read::cpu0.inst          192                       # Number of instructions bytes read from this memory
system.mem_ctrls.bytes_inst_read::total           192                       # Number of instructions bytes read from this memory
system.mem_ctrls.bytes_written::writebacks       249280                       # Number of bytes written to this memory
system.mem_ctrls.bytes_written::total          249280                       # Number of bytes written to this memory
system.mem_ctrls.num_reads::cpu0.inst               3                       # Number of read requests responded to by this memory
system.mem_ctrls.num_reads::cpu0.data           12098                       # Number of read requests responded to by this memory
system.mem_ctrls.num_reads::total               12101                       # Number of read requests responded to by this memory
system.mem_ctrls.num_writes::writebacks          3895                       # Number of write requests responded to by this memory
system.mem_ctrls.num_writes::total               3895                       # Number of write requests responded to by this memory
system.mem_ctrls.bw_read::cpu0.inst             12576                       # Total read bandwidth from this memory (bytes/s)
system.mem_ctrls.bw_read::cpu0.data          50714256                       # Total read bandwidth from this memory (bytes/s)
system.mem_ctrls.bw_read::total              50726832                       # Total read bandwidth from this memory (bytes/s)
system.mem_ctrls.bw_inst_read::cpu0.inst        12576                       # Instruction read bandwidth from this memory (bytes/s)
system.mem_ctrls.bw_inst_read::total            12576                       # Instruction read bandwidth from this memory (bytes/s)
system.mem_ctrls.bw_write::writebacks        16327660                       # Write bandwidth from this memory (bytes/s)
system.mem_ctrls.bw_write::total             16327660                       # Write bandwidth from this memory (bytes/s)
system.mem_ctrls.bw_total::writebacks        16327660                       # Total bandwidth to/from this memory (bytes/s)
system.mem_ctrls.bw_total::cpu0.inst            12576                       # Total bandwidth to/from this memory (bytes/s)
system.mem_ctrls.bw_total::cpu0.data         50714256                       # Total bandwidth to/from this memory (bytes/s)
system.mem_ctrls.bw_total::total             67054492                       # Total bandwidth to/from this memory (bytes/s)
system.mem_ctrls.readReqs                       12101                       # Number of read requests accepted
system.mem_ctrls.writeReqs                       3895                       # Number of write requests accepted
system.mem_ctrls.readBursts                     12101                       # Number of DRAM read bursts, including those serviced by the write queue
system.mem_ctrls.writeBursts                     3895                       # Number of DRAM write bursts, including those merged in the write queue
system.mem_ctrls.bytesReadDRAM                 756864                       # Total number of bytes read from DRAM
system.mem_ctrls.bytesReadWrQ                   17600                       # Total number of bytes read from write queue
system.mem_ctrls.bytesWritten                  249408                       # Total number of bytes written to DRAM
system.mem_ctrls.bytesReadSys                  774464                       # Total read bytes from the system interface side
system.mem_ctrls.bytesWrittenSys               249280                       # Total written bytes from the system interface side
system.mem_ctrls.servicedByWrQ                    275                       # Number of DRAM read bursts serviced by the write queue
system.mem_ctrls.mergedWrBursts                     0                       # Number of DRAM write bursts merged with an existing one
system.mem_ctrls.neitherReadNorWriteReqs            0                       # Number of requests that are neither read nor write
system.mem_ctrls.perBankRdBursts::0               786                       # Per bank write bursts
system.mem_ctrls.perBankRdBursts::1               440                       # Per bank write bursts
system.mem_ctrls.perBankRdBursts::2               325                       # Per bank write bursts
system.mem_ctrls.perBankRdBursts::3              1404                       # Per bank write bursts
system.mem_ctrls.perBankRdBursts::4              1986                       # Per bank write bursts
system.mem_ctrls.perBankRdBursts::5              1465                       # Per bank write bursts
system.mem_ctrls.perBankRdBursts::6              1140                       # Per bank write bursts
system.mem_ctrls.perBankRdBursts::7               145                       # Per bank write bursts
system.mem_ctrls.perBankRdBursts::8               107                       # Per bank write bursts
system.mem_ctrls.perBankRdBursts::9               164                       # Per bank write bursts
system.mem_ctrls.perBankRdBursts::10              228                       # Per bank write bursts
system.mem_ctrls.perBankRdBursts::11              481                       # Per bank write bursts
system.mem_ctrls.perBankRdBursts::12              980                       # Per bank write bursts
system.mem_ctrls.perBankRdBursts::13              772                       # Per bank write bursts
system.mem_ctrls.perBankRdBursts::14              546                       # Per bank write bursts
system.mem_ctrls.perBankRdBursts::15              857                       # Per bank write bursts
system.mem_ctrls.perBankWrBursts::0               503                       # Per bank write bursts
system.mem_ctrls.perBankWrBursts::1               283                       # Per bank write bursts
system.mem_ctrls.perBankWrBursts::2               231                       # Per bank write bursts
system.mem_ctrls.perBankWrBursts::3               510                       # Per bank write bursts
system.mem_ctrls.perBankWrBursts::4               406                       # Per bank write bursts
system.mem_ctrls.perBankWrBursts::5               491                       # Per bank write bursts
system.mem_ctrls.perBankWrBursts::6               353                       # Per bank write bursts
system.mem_ctrls.perBankWrBursts::7                 1                       # Per bank write bursts
system.mem_ctrls.perBankWrBursts::8                 0                       # Per bank write bursts
system.mem_ctrls.perBankWrBursts::9                 0                       # Per bank write bursts
system.mem_ctrls.perBankWrBursts::10                3                       # Per bank write bursts
system.mem_ctrls.perBankWrBursts::11               85                       # Per bank write bursts
system.mem_ctrls.perBankWrBursts::12              222                       # Per bank write bursts
system.mem_ctrls.perBankWrBursts::13              160                       # Per bank write bursts
system.mem_ctrls.perBankWrBursts::14              147                       # Per bank write bursts
system.mem_ctrls.perBankWrBursts::15              502                       # Per bank write bursts
system.mem_ctrls.numRdRetry                         0                       # Number of times read queue was full causing retry
system.mem_ctrls.numWrRetry                         0                       # Number of times write queue was full causing retry
system.mem_ctrls.totGap                   15267325000                       # Total gap between requests
system.mem_ctrls.readPktSize::0                     0                       # Read request sizes (log2)
system.mem_ctrls.readPktSize::1                     0                       # Read request sizes (log2)
system.mem_ctrls.readPktSize::2                     0                       # Read request sizes (log2)
system.mem_ctrls.readPktSize::3                     0                       # Read request sizes (log2)
system.mem_ctrls.readPktSize::4                     0                       # Read request sizes (log2)
system.mem_ctrls.readPktSize::5                     0                       # Read request sizes (log2)
system.mem_ctrls.readPktSize::6                 12101                       # Read request sizes (log2)
system.mem_ctrls.writePktSize::0                    0                       # Write request sizes (log2)
system.mem_ctrls.writePktSize::1                    0                       # Write request sizes (log2)
system.mem_ctrls.writePktSize::2                    0                       # Write request sizes (log2)
system.mem_ctrls.writePktSize::3                    0                       # Write request sizes (log2)
system.mem_ctrls.writePktSize::4                    0                       # Write request sizes (log2)
system.mem_ctrls.writePktSize::5                    0                       # Write request sizes (log2)
system.mem_ctrls.writePktSize::6                 3895                       # Write request sizes (log2)
system.mem_ctrls.rdQLenPdf::0                   10243                       # What read queue length does an incoming req see
system.mem_ctrls.rdQLenPdf::1                    1485                       # What read queue length does an incoming req see
system.mem_ctrls.rdQLenPdf::2                      92                       # What read queue length does an incoming req see
system.mem_ctrls.rdQLenPdf::3                       5                       # What read queue length does an incoming req see
system.mem_ctrls.rdQLenPdf::4                       1                       # What read queue length does an incoming req see
system.mem_ctrls.rdQLenPdf::5                       0                       # What read queue length does an incoming req see
system.mem_ctrls.rdQLenPdf::6                       0                       # What read queue length does an incoming req see
system.mem_ctrls.rdQLenPdf::7                       0                       # What read queue length does an incoming req see
system.mem_ctrls.rdQLenPdf::8                       0                       # What read queue length does an incoming req see
system.mem_ctrls.rdQLenPdf::9                       0                       # What read queue length does an incoming req see
system.mem_ctrls.rdQLenPdf::10                      0                       # What read queue length does an incoming req see
system.mem_ctrls.rdQLenPdf::11                      0                       # What read queue length does an incoming req see
system.mem_ctrls.rdQLenPdf::12                      0                       # What read queue length does an incoming req see
system.mem_ctrls.rdQLenPdf::13                      0                       # What read queue length does an incoming req see
system.mem_ctrls.rdQLenPdf::14                      0                       # What read queue length does an incoming req see
system.mem_ctrls.rdQLenPdf::15                      0                       # What read queue length does an incoming req see
system.mem_ctrls.rdQLenPdf::16                      0                       # What read queue length does an incoming req see
system.mem_ctrls.rdQLenPdf::17                      0                       # What read queue length does an incoming req see
system.mem_ctrls.rdQLenPdf::18                      0                       # What read queue length does an incoming req see
system.mem_ctrls.rdQLenPdf::19                      0                       # What read queue length does an incoming req see
system.mem_ctrls.rdQLenPdf::20                      0                       # What read queue length does an incoming req see
system.mem_ctrls.rdQLenPdf::21                      0                       # What read queue length does an incoming req see
system.mem_ctrls.rdQLenPdf::22                      0                       # What read queue length does an incoming req see
system.mem_ctrls.rdQLenPdf::23                      0                       # What read queue length does an incoming req see
system.mem_ctrls.rdQLenPdf::24                      0                       # What read queue length does an incoming req see
system.mem_ctrls.rdQLenPdf::25                      0                       # What read queue length does an incoming req see
system.mem_ctrls.rdQLenPdf::26                      0                       # What read queue length does an incoming req see
system.mem_ctrls.rdQLenPdf::27                      0                       # What read queue length does an incoming req see
system.mem_ctrls.rdQLenPdf::28                      0                       # What read queue length does an incoming req see
system.mem_ctrls.rdQLenPdf::29                      0                       # What read queue length does an incoming req see
system.mem_ctrls.rdQLenPdf::30                      0                       # What read queue length does an incoming req see
system.mem_ctrls.rdQLenPdf::31                      0                       # What read queue length does an incoming req see
system.mem_ctrls.wrQLenPdf::0                       0                       # What write queue length does an incoming req see
system.mem_ctrls.wrQLenPdf::1                       0                       # What write queue length does an incoming req see
system.mem_ctrls.wrQLenPdf::2                       0                       # What write queue length does an incoming req see
system.mem_ctrls.wrQLenPdf::3                       0                       # What write queue length does an incoming req see
system.mem_ctrls.wrQLenPdf::4                       0                       # What write queue length does an incoming req see
system.mem_ctrls.wrQLenPdf::5                       0                       # What write queue length does an incoming req see
system.mem_ctrls.wrQLenPdf::6                       0                       # What write queue length does an incoming req see
system.mem_ctrls.wrQLenPdf::7                       0                       # What write queue length does an incoming req see
system.mem_ctrls.wrQLenPdf::8                       0                       # What write queue length does an incoming req see
system.mem_ctrls.wrQLenPdf::9                       0                       # What write queue length does an incoming req see
system.mem_ctrls.wrQLenPdf::10                      0                       # What write queue length does an incoming req see
system.mem_ctrls.wrQLenPdf::11                      0                       # What write queue length does an incoming req see
system.mem_ctrls.wrQLenPdf::12                      0                       # What write queue length does an incoming req see
system.mem_ctrls.wrQLenPdf::13                      0                       # What write queue length does an incoming req see
system.mem_ctrls.wrQLenPdf::14                      0                       # What write queue length does an incoming req see
system.mem_ctrls.wrQLenPdf::15                    109                       # What write queue length does an incoming req see
system.mem_ctrls.wrQLenPdf::16                    112                       # What write queue length does an incoming req see
system.mem_ctrls.wrQLenPdf::17                    220                       # What write queue length does an incoming req see
system.mem_ctrls.wrQLenPdf::18                    229                       # What write queue length does an incoming req see
system.mem_ctrls.wrQLenPdf::19                    230                       # What write queue length does an incoming req see
system.mem_ctrls.wrQLenPdf::20                    229                       # What write queue length does an incoming req see
system.mem_ctrls.wrQLenPdf::21                    230                       # What write queue length does an incoming req see
system.mem_ctrls.wrQLenPdf::22                    229                       # What write queue length does an incoming req see
system.mem_ctrls.wrQLenPdf::23                    229                       # What write queue length does an incoming req see
system.mem_ctrls.wrQLenPdf::24                    229                       # What write queue length does an incoming req see
system.mem_ctrls.wrQLenPdf::25                    230                       # What write queue length does an incoming req see
system.mem_ctrls.wrQLenPdf::26                    230                       # What write queue length does an incoming req see
system.mem_ctrls.wrQLenPdf::27                    232                       # What write queue length does an incoming req see
system.mem_ctrls.wrQLenPdf::28                    232                       # What write queue length does an incoming req see
system.mem_ctrls.wrQLenPdf::29                    234                       # What write queue length does an incoming req see
system.mem_ctrls.wrQLenPdf::30                    234                       # What write queue length does an incoming req see
system.mem_ctrls.wrQLenPdf::31                    228                       # What write queue length does an incoming req see
system.mem_ctrls.wrQLenPdf::32                    229                       # What write queue length does an incoming req see
system.mem_ctrls.wrQLenPdf::33                      0                       # What write queue length does an incoming req see
system.mem_ctrls.wrQLenPdf::34                      0                       # What write queue length does an incoming req see
system.mem_ctrls.wrQLenPdf::35                      0                       # What write queue length does an incoming req see
system.mem_ctrls.wrQLenPdf::36                      0                       # What write queue length does an incoming req see
system.mem_ctrls.wrQLenPdf::37                      0                       # What write queue length does an incoming req see
system.mem_ctrls.wrQLenPdf::38                      0                       # What write queue length does an incoming req see
system.mem_ctrls.wrQLenPdf::39                      0                       # What write queue length does an incoming req see
system.mem_ctrls.wrQLenPdf::40                      0                       # What write queue length does an incoming req see
system.mem_ctrls.wrQLenPdf::41                      0                       # What write queue length does an incoming req see
system.mem_ctrls.wrQLenPdf::42                      0                       # What write queue length does an incoming req see
system.mem_ctrls.wrQLenPdf::43                      0                       # What write queue length does an incoming req see
system.mem_ctrls.wrQLenPdf::44                      0                       # What write queue length does an incoming req see
system.mem_ctrls.wrQLenPdf::45                      0                       # What write queue length does an incoming req see
system.mem_ctrls.wrQLenPdf::46                      0                       # What write queue length does an incoming req see
system.mem_ctrls.wrQLenPdf::47                      0                       # What write queue length does an incoming req see
system.mem_ctrls.wrQLenPdf::48                      0                       # What write queue length does an incoming req see
system.mem_ctrls.wrQLenPdf::49                      0                       # What write queue length does an incoming req see
system.mem_ctrls.wrQLenPdf::50                      0                       # What write queue length does an incoming req see
system.mem_ctrls.wrQLenPdf::51                      0                       # What write queue length does an incoming req see
system.mem_ctrls.wrQLenPdf::52                      0                       # What write queue length does an incoming req see
system.mem_ctrls.wrQLenPdf::53                      0                       # What write queue length does an incoming req see
system.mem_ctrls.wrQLenPdf::54                      0                       # What write queue length does an incoming req see
system.mem_ctrls.wrQLenPdf::55                      0                       # What write queue length does an incoming req see
system.mem_ctrls.wrQLenPdf::56                      0                       # What write queue length does an incoming req see
system.mem_ctrls.wrQLenPdf::57                      0                       # What write queue length does an incoming req see
system.mem_ctrls.wrQLenPdf::58                      0                       # What write queue length does an incoming req see
system.mem_ctrls.wrQLenPdf::59                      0                       # What write queue length does an incoming req see
system.mem_ctrls.wrQLenPdf::60                      0                       # What write queue length does an incoming req see
system.mem_ctrls.wrQLenPdf::61                      0                       # What write queue length does an incoming req see
system.mem_ctrls.wrQLenPdf::62                      0                       # What write queue length does an incoming req see
system.mem_ctrls.wrQLenPdf::63                      0                       # What write queue length does an incoming req see
system.mem_ctrls.bytesPerActivate::samples        11636                       # Bytes accessed per row activation
system.mem_ctrls.bytesPerActivate::mean     86.512204                       # Bytes accessed per row activation
system.mem_ctrls.bytesPerActivate::gmean    78.971991                       # Bytes accessed per row activation
system.mem_ctrls.bytesPerActivate::stdev    46.527392                       # Bytes accessed per row activation
system.mem_ctrls.bytesPerActivate::64-127         8709     74.85%     74.85% # Bytes accessed per row activation
system.mem_ctrls.bytesPerActivate::128-191         2139     18.38%     93.23% # Bytes accessed per row activation
system.mem_ctrls.bytesPerActivate::192-255          544      4.68%     97.90% # Bytes accessed per row activation
system.mem_ctrls.bytesPerActivate::256-319          154      1.32%     99.23% # Bytes accessed per row activation
system.mem_ctrls.bytesPerActivate::320-383           62      0.53%     99.76% # Bytes accessed per row activation
system.mem_ctrls.bytesPerActivate::384-447           19      0.16%     99.92% # Bytes accessed per row activation
system.mem_ctrls.bytesPerActivate::448-511            5      0.04%     99.97% # Bytes accessed per row activation
system.mem_ctrls.bytesPerActivate::512-575            1      0.01%     99.97% # Bytes accessed per row activation
system.mem_ctrls.bytesPerActivate::576-639            3      0.03%    100.00% # Bytes accessed per row activation
system.mem_ctrls.bytesPerActivate::total        11636                       # Bytes accessed per row activation
system.mem_ctrls.rdPerTurnAround::samples          229                       # Reads before turning the bus around for writes
system.mem_ctrls.rdPerTurnAround::mean      51.576419                       # Reads before turning the bus around for writes
system.mem_ctrls.rdPerTurnAround::gmean     50.350426                       # Reads before turning the bus around for writes
system.mem_ctrls.rdPerTurnAround::stdev     11.372079                       # Reads before turning the bus around for writes
system.mem_ctrls.rdPerTurnAround::28-31             3      1.31%      1.31% # Reads before turning the bus around for writes
system.mem_ctrls.rdPerTurnAround::32-35            14      6.11%      7.42% # Reads before turning the bus around for writes
system.mem_ctrls.rdPerTurnAround::36-39            16      6.99%     14.41% # Reads before turning the bus around for writes
system.mem_ctrls.rdPerTurnAround::40-43            25     10.92%     25.33% # Reads before turning the bus around for writes
system.mem_ctrls.rdPerTurnAround::44-47            39     17.03%     42.36% # Reads before turning the bus around for writes
system.mem_ctrls.rdPerTurnAround::48-51            19      8.30%     50.66% # Reads before turning the bus around for writes
system.mem_ctrls.rdPerTurnAround::52-55            35     15.28%     65.94% # Reads before turning the bus around for writes
system.mem_ctrls.rdPerTurnAround::56-59            23     10.04%     75.98% # Reads before turning the bus around for writes
system.mem_ctrls.rdPerTurnAround::60-63            23     10.04%     86.03% # Reads before turning the bus around for writes
system.mem_ctrls.rdPerTurnAround::64-67            12      5.24%     91.27% # Reads before turning the bus around for writes
system.mem_ctrls.rdPerTurnAround::68-71            10      4.37%     95.63% # Reads before turning the bus around for writes
system.mem_ctrls.rdPerTurnAround::72-75             1      0.44%     96.07% # Reads before turning the bus around for writes
system.mem_ctrls.rdPerTurnAround::76-79             5      2.18%     98.25% # Reads before turning the bus around for writes
system.mem_ctrls.rdPerTurnAround::80-83             2      0.87%     99.13% # Reads before turning the bus around for writes
system.mem_ctrls.rdPerTurnAround::84-87             2      0.87%    100.00% # Reads before turning the bus around for writes
system.mem_ctrls.rdPerTurnAround::total           229                       # Reads before turning the bus around for writes
system.mem_ctrls.wrPerTurnAround::samples          229                       # Writes before turning the bus around for reads
system.mem_ctrls.wrPerTurnAround::mean      17.017467                       # Writes before turning the bus around for reads
system.mem_ctrls.wrPerTurnAround::gmean     16.984350                       # Writes before turning the bus around for reads
system.mem_ctrls.wrPerTurnAround::stdev      1.067729                       # Writes before turning the bus around for reads
system.mem_ctrls.wrPerTurnAround::16              117     51.09%     51.09% # Writes before turning the bus around for reads
system.mem_ctrls.wrPerTurnAround::17                2      0.87%     51.97% # Writes before turning the bus around for reads
system.mem_ctrls.wrPerTurnAround::18               99     43.23%     95.20% # Writes before turning the bus around for reads
system.mem_ctrls.wrPerTurnAround::19               11      4.80%    100.00% # Writes before turning the bus around for reads
system.mem_ctrls.wrPerTurnAround::total           229                       # Writes before turning the bus around for reads
system.mem_ctrls.totQLat                    755784750                       # Total ticks spent queuing
system.mem_ctrls.totMemAccLat               977522250                       # Total ticks spent from burst creation until serviced by the DRAM
system.mem_ctrls.totBusLat                   59130000                       # Total ticks spent in databus transfers
system.mem_ctrls.avgQLat                     63908.74                       # Average queueing delay per DRAM burst
system.mem_ctrls.avgBusLat                    5000.00                       # Average bus latency per DRAM burst
system.mem_ctrls.avgMemAccLat                82658.74                       # Average memory access latency per DRAM burst
system.mem_ctrls.avgRdBW                        49.57                       # Average DRAM read bandwidth in MiByte/s
system.mem_ctrls.avgWrBW                        16.34                       # Average achieved write bandwidth in MiByte/s
system.mem_ctrls.avgRdBWSys                     50.73                       # Average system read bandwidth in MiByte/s
system.mem_ctrls.avgWrBWSys                     16.33                       # Average system write bandwidth in MiByte/s
system.mem_ctrls.peakBW                      12800.00                       # Theoretical peak bandwidth in MiByte/s
system.mem_ctrls.busUtil                         0.51                       # Data bus utilization in percentage
system.mem_ctrls.busUtilRead                     0.39                       # Data bus utilization in percentage for reads
system.mem_ctrls.busUtilWrite                    0.13                       # Data bus utilization in percentage for writes
system.mem_ctrls.avgRdQLen                       1.10                       # Average read queue length when enqueuing
system.mem_ctrls.avgWrQLen                      25.15                       # Average write queue length when enqueuing
system.mem_ctrls.readRowHits                     2732                       # Number of row buffer hits during reads
system.mem_ctrls.writeRowHits                    1358                       # Number of row buffer hits during writes
system.mem_ctrls.readRowHitRate                 23.10                       # Row buffer hit rate for reads
system.mem_ctrls.writeRowHitRate                34.87                       # Row buffer hit rate for writes
system.mem_ctrls.avgGap                     954446.42                       # Average gap between requests
system.mem_ctrls.pageHitRate                    26.02                       # Row buffer hit rate, read and write combined
system.mem_ctrls_0.actEnergy                 54670980                       # Energy for activate commands per rank (pJ)
system.mem_ctrls_0.preEnergy                 29050725                       # Energy for precharge commands per rank (pJ)
system.mem_ctrls_0.readEnergy                54913740                       # Energy for read commands per rank (pJ)
system.mem_ctrls_0.writeEnergy               14501160                       # Energy for write commands per rank (pJ)
system.mem_ctrls_0.refreshEnergy         1169045280.000000                       # Energy for refresh commands per rank (pJ)
system.mem_ctrls_0.actBackEnergy            453359190                       # Energy for active background per rank (pJ)
system.mem_ctrls_0.preBackEnergy             55532160                       # Energy for precharge background per rank (pJ)
system.mem_ctrls_0.actPowerDownEnergy      3273736860                       # Energy for active power-down per rank (pJ)
system.mem_ctrls_0.prePowerDownEnergy      1528668000                       # Energy for precharge power-down per rank (pJ)
system.mem_ctrls_0.selfRefreshEnergy        903483240                       # Energy for self refresh per rank (pJ)
system.mem_ctrls_0.totalEnergy             7537068375                       # Total energy per rank (pJ)
system.mem_ctrls_0.averagePower            493.672528                       # Core power per rank (mW)
system.mem_ctrls_0.totalIdleTime          14127644250                       # Total Idle time Per DRAM Rank
system.mem_ctrls_0.memoryStateTime::IDLE     98568000                       # Time in different power states
system.mem_ctrls_0.memoryStateTime::REF     496638000                       # Time in different power states
system.mem_ctrls_0.memoryStateTime::SREF   2968126500                       # Time in different power states
system.mem_ctrls_0.memoryStateTime::PRE_PDN   3980943000                       # Time in different power states
system.mem_ctrls_0.memoryStateTime::ACT     543803250                       # Time in different power states
system.mem_ctrls_0.memoryStateTime::ACT_PDN   7179265375                       # Time in different power states
system.mem_ctrls_1.actEnergy                 28388640                       # Energy for activate commands per rank (pJ)
system.mem_ctrls_1.preEnergy                 15107895                       # Energy for precharge commands per rank (pJ)
system.mem_ctrls_1.readEnergy                29523900                       # Energy for read commands per rank (pJ)
system.mem_ctrls_1.writeEnergy                5841180                       # Energy for write commands per rank (pJ)
system.mem_ctrls_1.refreshEnergy         1284597600.000000                       # Energy for refresh commands per rank (pJ)
system.mem_ctrls_1.actBackEnergy            459565920                       # Energy for active background per rank (pJ)
system.mem_ctrls_1.preBackEnergy             70392000                       # Energy for precharge background per rank (pJ)
system.mem_ctrls_1.actPowerDownEnergy      2962489500                       # Energy for active power-down per rank (pJ)
system.mem_ctrls_1.prePowerDownEnergy      1927475040                       # Energy for precharge power-down per rank (pJ)
system.mem_ctrls_1.selfRefreshEnergy        885563940                       # Energy for self refresh per rank (pJ)
system.mem_ctrls_1.totalEnergy             7669597515                       # Total energy per rank (pJ)
system.mem_ctrls_1.averagePower            502.353091                       # Core power per rank (mW)
system.mem_ctrls_1.totalIdleTime          14073516500                       # Total Idle time Per DRAM Rank
system.mem_ctrls_1.memoryStateTime::IDLE    136200000                       # Time in different power states
system.mem_ctrls_1.memoryStateTime::REF     546394000                       # Time in different power states
system.mem_ctrls_1.memoryStateTime::SREF   2558604250                       # Time in different power states
system.mem_ctrls_1.memoryStateTime::PRE_PDN   5019482125                       # Time in different power states
system.mem_ctrls_1.memoryStateTime::ACT     509913250                       # Time in different power states
system.mem_ctrls_1.memoryStateTime::ACT_PDN   6496750500                       # Time in different power states
system.pwrStateResidencyTicks::UNDEFINED  15267344125                       # Cumulative time (in ticks) in various power states
system.cpu0.branchPred.lookups                6660537                       # Number of BP lookups
system.cpu0.branchPred.condPredicted          6660537                       # Number of conditional branches predicted
system.cpu0.branchPred.condIncorrect           271890                       # Number of conditional branches incorrect
system.cpu0.branchPred.BTBLookups             4969350                       # Number of BTB lookups
system.cpu0.branchPred.BTBHits                      0                       # Number of BTB hits
system.cpu0.branchPred.BTBCorrect                   0                       # Number of correct BTB predictions (this stat may not work properly.
system.cpu0.branchPred.BTBHitPct             0.000000                       # BTB Hit Percentage
system.cpu0.branchPred.usedRAS                 166381                       # Number of times the RAS was used to get a target.
system.cpu0.branchPred.RASInCorrect             23826                       # Number of incorrect RAS predictions.
system.cpu0.branchPred.indirectLookups        4969350                       # Number of indirect predictor lookups.
system.cpu0.branchPred.indirectHits           2874472                       # Number of indirect target hits.
system.cpu0.branchPred.indirectMisses         2094878                       # Number of indirect misses.
system.cpu0.branchPredindirectMispredicted        82214                       # Number of mispredicted indirect branches.
system.cpu_voltage_domain.voltage                   1                       # Voltage in Volts
system.cpu_clk_domain.clock                       500                       # Clock period in ticks
system.cpu0.dtb.walker.pwrStateResidencyTicks::UNDEFINED  15267344125                       # Cumulative time (in ticks) in various power states
system.cpu0.dtb.rdAccesses                    3238170                       # TLB accesses on read requests
system.cpu0.dtb.wrAccesses                     201153                       # TLB accesses on write requests
system.cpu0.dtb.rdMisses                       703045                       # TLB misses on read requests
system.cpu0.dtb.wrMisses                         3385                       # TLB misses on write requests
system.cpu0.apic_clk_domain.clock                8000                       # Clock period in ticks
system.cpu0.interrupts.pwrStateResidencyTicks::UNDEFINED  15267344125                       # Cumulative time (in ticks) in various power states
system.cpu0.itb.walker.pwrStateResidencyTicks::UNDEFINED  15267344125                       # Cumulative time (in ticks) in various power states
system.cpu0.itb.rdAccesses                          0                       # TLB accesses on read requests
system.cpu0.itb.wrAccesses                    5690351                       # TLB accesses on write requests
system.cpu0.itb.rdMisses                            0                       # TLB misses on read requests
system.cpu0.itb.wrMisses                        17799                       # TLB misses on write requests
system.cpu0.workload.numSyscalls                    1                       # Number of system calls
system.cpu0.pwrStateResidencyTicks::ON    15267344125                       # Cumulative time (in ticks) in various power states
system.cpu0.numCycles                        30534688                       # number of cpu cycles simulated
system.cpu0.numWorkItemsStarted                     0                       # number of work items this cpu started
system.cpu0.numWorkItemsCompleted                   0                       # number of work items this cpu completed
system.cpu0.fetch.icacheStallCycles           5806469                       # Number of cycles fetch is stalled on an Icache miss
system.cpu0.fetch.Insts                      19078887                       # Number of instructions fetch has processed
system.cpu0.fetch.Branches                    6660537                       # Number of branches that fetch encountered
system.cpu0.fetch.predictedBranches           3040853                       # Number of branches that fetch has predicted taken
system.cpu0.fetch.Cycles                     24313605                       # Number of cycles fetch has run and was not squashing or blocked
system.cpu0.fetch.SquashCycles                 555320                       # Number of cycles fetch has spent squashing
system.cpu0.fetch.TlbCycles                       988                       # Number of cycles fetch has spent waiting for tlb
system.cpu0.fetch.MiscStallCycles                4107                       # Number of cycles fetch has spent waiting on interrupts, or bad addresses, or out of MSHRs
system.cpu0.fetch.PendingTrapStallCycles       127801                       # Number of stall cycles due to pending traps
system.cpu0.fetch.PendingQuiesceStallCycles           30                       # Number of stall cycles due to pending quiesce instructions
system.cpu0.fetch.CacheLines                  5672552                       # Number of cache lines fetched
system.cpu0.fetch.IcacheSquashes                43097                       # Number of outstanding Icache misses that were squashed
system.cpu0.fetch.ItlbSquashes                     30                       # Number of outstanding ITLB misses that were squashed
system.cpu0.fetch.rateDist::samples          30530660                       # Number of instructions fetched each cycle (Total)
system.cpu0.fetch.rateDist::mean             1.255722                       # Number of instructions fetched each cycle (Total)
system.cpu0.fetch.rateDist::stdev            2.603823                       # Number of instructions fetched each cycle (Total)
system.cpu0.fetch.rateDist::underflows              0      0.00%      0.00% # Number of instructions fetched each cycle (Total)
system.cpu0.fetch.rateDist::0                23075807     75.58%     75.58% # Number of instructions fetched each cycle (Total)
system.cpu0.fetch.rateDist::1                   71060      0.23%     75.82% # Number of instructions fetched each cycle (Total)
system.cpu0.fetch.rateDist::2                 2821410      9.24%     85.06% # Number of instructions fetched each cycle (Total)
system.cpu0.fetch.rateDist::3                   92885      0.30%     85.36% # Number of instructions fetched each cycle (Total)
system.cpu0.fetch.rateDist::4                  508951      1.67%     87.03% # Number of instructions fetched each cycle (Total)
system.cpu0.fetch.rateDist::5                  216343      0.71%     87.74% # Number of instructions fetched each cycle (Total)
system.cpu0.fetch.rateDist::6                  324042      1.06%     88.80% # Number of instructions fetched each cycle (Total)
system.cpu0.fetch.rateDist::7                   77591      0.25%     89.05% # Number of instructions fetched each cycle (Total)
system.cpu0.fetch.rateDist::8                 3342571     10.95%    100.00% # Number of instructions fetched each cycle (Total)
system.cpu0.fetch.rateDist::overflows               0      0.00%    100.00% # Number of instructions fetched each cycle (Total)
system.cpu0.fetch.rateDist::min_value               0                       # Number of instructions fetched each cycle (Total)
system.cpu0.fetch.rateDist::max_value               8                       # Number of instructions fetched each cycle (Total)
system.cpu0.fetch.rateDist::total            30530660                       # Number of instructions fetched each cycle (Total)
system.cpu0.fetch.branchRate                 0.218130                       # Number of branch fetches per cycle
system.cpu0.fetch.rate                       0.624827                       # Number of inst fetches per cycle
system.cpu0.decode.IdleCycles                 3040752                       # Number of cycles decode is idle
system.cpu0.decode.BlockedCycles             22112517                       # Number of cycles decode is blocked
system.cpu0.decode.RunCycles                  3891186                       # Number of cycles decode is running
system.cpu0.decode.UnblockCycles              1208545                       # Number of cycles decode is unblocking
system.cpu0.decode.SquashCycles                277660                       # Number of cycles decode is squashing
system.cpu0.decode.DecodedInsts              32609598                       # Number of instructions handled by decode
system.cpu0.rename.SquashCycles                277660                       # Number of cycles rename is squashing
system.cpu0.rename.IdleCycles                 3500410                       # Number of cycles rename is idle
system.cpu0.rename.BlockCycles               17927957                       # Number of cycles rename is blocking
system.cpu0.rename.serializeStallCycles         84204                       # count of cycles rename stalled for serializing inst
system.cpu0.rename.RunCycles                  4402524                       # Number of cycles rename is running
system.cpu0.rename.UnblockCycles              4337905                       # Number of cycles rename is unblocking
system.cpu0.rename.RenamedInsts              31362885                       # Number of instructions processed by rename
system.cpu0.rename.ROBFullEvents                70110                       # Number of times rename has blocked due to ROB full
system.cpu0.rename.IQFullEvents               3804026                       # Number of times rename has blocked due to IQ full
system.cpu0.rename.LQFullEvents                108319                       # Number of times rename has blocked due to LQ full
system.cpu0.rename.SQFullEvents                213755                       # Number of times rename has blocked due to SQ full
system.cpu0.rename.RenamedOperands           37398442                       # Number of destination operands rename has renamed
system.cpu0.rename.RenameLookups             87722670                       # Number of register rename lookups that rename has made
system.cpu0.rename.int_rename_lookups        40889321                       # Number of integer rename lookups
system.cpu0.rename.fp_rename_lookups           155030                       # Number of floating rename lookups
system.cpu0.rename.CommittedMaps             14082635                       # Number of HB maps that are committed
system.cpu0.rename.UndoneMaps                23315934                       # Number of HB maps that are undone due to squashing
system.cpu0.rename.serializingInsts              1465                       # count of serializing insts renamed
system.cpu0.rename.tempSerializingInsts          1675                       # count of temporary serializing insts renamed
system.cpu0.rename.skidInsts                  7599430                       # count of insts added to the skid buffer
system.cpu0.memDep0.insertedLoads             5697630                       # Number of loads inserted to the mem dependence unit.
system.cpu0.memDep0.insertedStores             294459                       # Number of stores inserted to the mem dependence unit.
system.cpu0.memDep0.conflictingLoads            18768                       # Number of conflicting loads.
system.cpu0.memDep0.conflictingStores           17547                       # Number of conflicting stores.
system.cpu0.iq.iqInstsAdded                  29808589                       # Number of instructions added to the IQ (excludes non-spec)
system.cpu0.iq.iqNonSpecInstsAdded              17406                       # Number of non-speculative instructions added to the IQ
system.cpu0.iq.iqInstsIssued                 21426732                       # Number of instructions issued
system.cpu0.iq.iqSquashedInstsIssued            27097                       # Number of squashed instructions issued
system.cpu0.iq.iqSquashedInstsExamined       18072609                       # Number of squashed instructions iterated over during squash; mainly for profiling
system.cpu0.iq.iqSquashedOperandsExamined     38857391                       # Number of squashed operands that are examined and possibly removed from graph
system.cpu0.iq.iqSquashedNonSpecRemoved         17405                       # Number of squashed non-spec instructions that were removed
system.cpu0.iq.issued_per_cycle::samples     30530660                       # Number of insts issued each cycle
system.cpu0.iq.issued_per_cycle::mean        0.701810                       # Number of insts issued each cycle
system.cpu0.iq.issued_per_cycle::stdev       1.426098                       # Number of insts issued each cycle
system.cpu0.iq.issued_per_cycle::underflows            0      0.00%      0.00% # Number of insts issued each cycle
system.cpu0.iq.issued_per_cycle::0           22146680     72.54%     72.54% # Number of insts issued each cycle
system.cpu0.iq.issued_per_cycle::1            3012529      9.87%     82.41% # Number of insts issued each cycle
system.cpu0.iq.issued_per_cycle::2            1802868      5.91%     88.31% # Number of insts issued each cycle
system.cpu0.iq.issued_per_cycle::3            1280490      4.19%     92.51% # Number of insts issued each cycle
system.cpu0.iq.issued_per_cycle::4            1307513      4.28%     96.79% # Number of insts issued each cycle
system.cpu0.iq.issued_per_cycle::5             444688      1.46%     98.24% # Number of insts issued each cycle
system.cpu0.iq.issued_per_cycle::6             325496      1.07%     99.31% # Number of insts issued each cycle
system.cpu0.iq.issued_per_cycle::7             122639      0.40%     99.71% # Number of insts issued each cycle
system.cpu0.iq.issued_per_cycle::8              87757      0.29%    100.00% # Number of insts issued each cycle
system.cpu0.iq.issued_per_cycle::overflows            0      0.00%    100.00% # Number of insts issued each cycle
system.cpu0.iq.issued_per_cycle::min_value            0                       # Number of insts issued each cycle
system.cpu0.iq.issued_per_cycle::max_value            8                       # Number of insts issued each cycle
system.cpu0.iq.issued_per_cycle::total       30530660                       # Number of insts issued each cycle
system.cpu0.iq.fu_full::No_OpClass                  0      0.00%      0.00% # attempts to use FU when none available
system.cpu0.iq.fu_full::IntAlu                  50416     73.12%     73.12% # attempts to use FU when none available
system.cpu0.iq.fu_full::IntMult                     0      0.00%     73.12% # attempts to use FU when none available
system.cpu0.iq.fu_full::IntDiv                      0      0.00%     73.12% # attempts to use FU when none available
system.cpu0.iq.fu_full::FloatAdd                 4662      6.76%     79.88% # attempts to use FU when none available
system.cpu0.iq.fu_full::FloatCmp                    0      0.00%     79.88% # attempts to use FU when none available
system.cpu0.iq.fu_full::FloatCvt                    0      0.00%     79.88% # attempts to use FU when none available
system.cpu0.iq.fu_full::FloatMult                   0      0.00%     79.88% # attempts to use FU when none available
system.cpu0.iq.fu_full::FloatMultAcc                0      0.00%     79.88% # attempts to use FU when none available
system.cpu0.iq.fu_full::FloatDiv                    0      0.00%     79.88% # attempts to use FU when none available
system.cpu0.iq.fu_full::FloatMisc                   0      0.00%     79.88% # attempts to use FU when none available
system.cpu0.iq.fu_full::FloatSqrt                   0      0.00%     79.88% # attempts to use FU when none available
system.cpu0.iq.fu_full::SimdAdd                     0      0.00%     79.88% # attempts to use FU when none available
system.cpu0.iq.fu_full::SimdAddAcc                  0      0.00%     79.88% # attempts to use FU when none available
system.cpu0.iq.fu_full::SimdAlu                     0      0.00%     79.88% # attempts to use FU when none available
system.cpu0.iq.fu_full::SimdCmp                     0      0.00%     79.88% # attempts to use FU when none available
system.cpu0.iq.fu_full::SimdCvt                     0      0.00%     79.88% # attempts to use FU when none available
system.cpu0.iq.fu_full::SimdMisc                    0      0.00%     79.88% # attempts to use FU when none available
system.cpu0.iq.fu_full::SimdMult                    0      0.00%     79.88% # attempts to use FU when none available
system.cpu0.iq.fu_full::SimdMultAcc                 0      0.00%     79.88% # attempts to use FU when none available
system.cpu0.iq.fu_full::SimdShift                   0      0.00%     79.88% # attempts to use FU when none available
system.cpu0.iq.fu_full::SimdShiftAcc                0      0.00%     79.88% # attempts to use FU when none available
system.cpu0.iq.fu_full::SimdSqrt                    0      0.00%     79.88% # attempts to use FU when none available
system.cpu0.iq.fu_full::SimdFloatAdd                0      0.00%     79.88% # attempts to use FU when none available
system.cpu0.iq.fu_full::SimdFloatAlu                0      0.00%     79.88% # attempts to use FU when none available
system.cpu0.iq.fu_full::SimdFloatCmp                0      0.00%     79.88% # attempts to use FU when none available
system.cpu0.iq.fu_full::SimdFloatCvt                0      0.00%     79.88% # attempts to use FU when none available
system.cpu0.iq.fu_full::SimdFloatDiv                0      0.00%     79.88% # attempts to use FU when none available
system.cpu0.iq.fu_full::SimdFloatMisc               0      0.00%     79.88% # attempts to use FU when none available
system.cpu0.iq.fu_full::SimdFloatMult               0      0.00%     79.88% # attempts to use FU when none available
system.cpu0.iq.fu_full::SimdFloatMultAcc            0      0.00%     79.88% # attempts to use FU when none available
system.cpu0.iq.fu_full::SimdFloatSqrt               0      0.00%     79.88% # attempts to use FU when none available
system.cpu0.iq.fu_full::MemRead                 12149     17.62%     97.50% # attempts to use FU when none available
system.cpu0.iq.fu_full::MemWrite                 1164      1.69%     99.19% # attempts to use FU when none available
system.cpu0.iq.fu_full::FloatMemRead              463      0.67%     99.86% # attempts to use FU when none available
system.cpu0.iq.fu_full::FloatMemWrite              97      0.14%    100.00% # attempts to use FU when none available
system.cpu0.iq.fu_full::IprAccess                   0      0.00%    100.00% # attempts to use FU when none available
system.cpu0.iq.fu_full::InstPrefetch                0      0.00%    100.00% # attempts to use FU when none available
system.cpu0.iq.FU_type_0::No_OpClass            65408      0.31%      0.31% # Type of FU issued
system.cpu0.iq.FU_type_0::IntAlu             17617943     82.22%     82.53% # Type of FU issued
system.cpu0.iq.FU_type_0::IntMult                3879      0.02%     82.55% # Type of FU issued
system.cpu0.iq.FU_type_0::IntDiv                40105      0.19%     82.73% # Type of FU issued
system.cpu0.iq.FU_type_0::FloatAdd              57969      0.27%     83.01% # Type of FU issued
system.cpu0.iq.FU_type_0::FloatCmp                  0      0.00%     83.01% # Type of FU issued
system.cpu0.iq.FU_type_0::FloatCvt                  0      0.00%     83.01% # Type of FU issued
system.cpu0.iq.FU_type_0::FloatMult                 0      0.00%     83.01% # Type of FU issued
system.cpu0.iq.FU_type_0::FloatMultAcc              0      0.00%     83.01% # Type of FU issued
system.cpu0.iq.FU_type_0::FloatDiv                  0      0.00%     83.01% # Type of FU issued
system.cpu0.iq.FU_type_0::FloatMisc                 0      0.00%     83.01% # Type of FU issued
system.cpu0.iq.FU_type_0::FloatSqrt                 0      0.00%     83.01% # Type of FU issued
system.cpu0.iq.FU_type_0::SimdAdd                   0      0.00%     83.01% # Type of FU issued
system.cpu0.iq.FU_type_0::SimdAddAcc                0      0.00%     83.01% # Type of FU issued
system.cpu0.iq.FU_type_0::SimdAlu                   0      0.00%     83.01% # Type of FU issued
system.cpu0.iq.FU_type_0::SimdCmp                   0      0.00%     83.01% # Type of FU issued
system.cpu0.iq.FU_type_0::SimdCvt                   0      0.00%     83.01% # Type of FU issued
system.cpu0.iq.FU_type_0::SimdMisc                  0      0.00%     83.01% # Type of FU issued
system.cpu0.iq.FU_type_0::SimdMult                  0      0.00%     83.01% # Type of FU issued
system.cpu0.iq.FU_type_0::SimdMultAcc               0      0.00%     83.01% # Type of FU issued
system.cpu0.iq.FU_type_0::SimdShift                 0      0.00%     83.01% # Type of FU issued
system.cpu0.iq.FU_type_0::SimdShiftAcc              0      0.00%     83.01% # Type of FU issued
system.cpu0.iq.FU_type_0::SimdSqrt                  0      0.00%     83.01% # Type of FU issued
system.cpu0.iq.FU_type_0::SimdFloatAdd              0      0.00%     83.01% # Type of FU issued
system.cpu0.iq.FU_type_0::SimdFloatAlu              0      0.00%     83.01% # Type of FU issued
system.cpu0.iq.FU_type_0::SimdFloatCmp              0      0.00%     83.01% # Type of FU issued
system.cpu0.iq.FU_type_0::SimdFloatCvt              0      0.00%     83.01% # Type of FU issued
system.cpu0.iq.FU_type_0::SimdFloatDiv              0      0.00%     83.01% # Type of FU issued
system.cpu0.iq.FU_type_0::SimdFloatMisc             0      0.00%     83.01% # Type of FU issued
system.cpu0.iq.FU_type_0::SimdFloatMult             0      0.00%     83.01% # Type of FU issued
system.cpu0.iq.FU_type_0::SimdFloatMultAcc            0      0.00%     83.01% # Type of FU issued
system.cpu0.iq.FU_type_0::SimdFloatSqrt             0      0.00%     83.01% # Type of FU issued
system.cpu0.iq.FU_type_0::MemRead             3414207     15.93%     98.94% # Type of FU issued
system.cpu0.iq.FU_type_0::MemWrite             216423      1.01%     99.95% # Type of FU issued
system.cpu0.iq.FU_type_0::FloatMemRead          10449      0.05%    100.00% # Type of FU issued
system.cpu0.iq.FU_type_0::FloatMemWrite           349      0.00%    100.00% # Type of FU issued
system.cpu0.iq.FU_type_0::IprAccess                 0      0.00%    100.00% # Type of FU issued
system.cpu0.iq.FU_type_0::InstPrefetch              0      0.00%    100.00% # Type of FU issued
system.cpu0.iq.FU_type_0::total              21426732                       # Type of FU issued
system.cpu0.iq.rate                          0.701718                       # Inst issue rate
system.cpu0.iq.fu_busy_cnt                      68951                       # FU busy when requested
system.cpu0.iq.fu_busy_rate                  0.003218                       # FU busy rate (busy events/executed inst)
system.cpu0.iq.int_inst_queue_reads          73336425                       # Number of integer instruction queue reads
system.cpu0.iq.int_inst_queue_writes         47768572                       # Number of integer instruction queue writes
system.cpu0.iq.int_inst_queue_wakeup_accesses     20521096                       # Number of integer instruction queue wakeup accesses
system.cpu0.iq.fp_inst_queue_reads             143747                       # Number of floating instruction queue reads
system.cpu0.iq.fp_inst_queue_writes            130052                       # Number of floating instruction queue writes
system.cpu0.iq.fp_inst_queue_wakeup_accesses        63117                       # Number of floating instruction queue wakeup accesses
system.cpu0.iq.vec_inst_queue_reads                 0                       # Number of vector instruction queue reads
system.cpu0.iq.vec_inst_queue_writes                0                       # Number of vector instruction queue writes
system.cpu0.iq.vec_inst_queue_wakeup_accesses            0                       # Number of vector instruction queue wakeup accesses
system.cpu0.iq.int_alu_accesses              21356250                       # Number of integer alu accesses
system.cpu0.iq.fp_alu_accesses                  74025                       # Number of floating point alu accesses
system.cpu0.iq.vec_alu_accesses                     0                       # Number of vector alu accesses
system.cpu0.iew.lsq.thread0.forwLoads           23471                       # Number of loads that had data forwarded from stores
system.cpu0.iew.lsq.thread0.invAddrLoads            0                       # Number of loads ignored due to an invalid address
system.cpu0.iew.lsq.thread0.squashedLoads      3466975                       # Number of loads squashed
system.cpu0.iew.lsq.thread0.ignoredResponses          679                       # Number of memory responses ignored because the instruction is squashed
system.cpu0.iew.lsq.thread0.memOrderViolation           26                       # Number of memory ordering violations
system.cpu0.iew.lsq.thread0.squashedStores       177282                       # Number of stores squashed
system.cpu0.iew.lsq.thread0.invAddrSwpfs            0                       # Number of software prefetches ignored due to an invalid address
system.cpu0.iew.lsq.thread0.blockedLoads            0                       # Number of blocked loads due to partial load-store forwarding
system.cpu0.iew.lsq.thread0.rescheduledLoads          168                       # Number of loads that were rescheduled
system.cpu0.iew.lsq.thread0.cacheBlocked         8743                       # Number of times an access to memory failed due to the cache being blocked
system.cpu0.iew.iewIdleCycles                       0                       # Number of cycles IEW is idle
system.cpu0.iew.iewSquashCycles                277660                       # Number of cycles IEW is squashing
system.cpu0.iew.iewBlockCycles               14703789                       # Number of cycles IEW is blocking
system.cpu0.iew.iewUnblockCycles               701130                       # Number of cycles IEW is unblocking
system.cpu0.iew.iewDispatchedInsts           29825995                       # Number of instructions dispatched to IQ
system.cpu0.iew.iewDispSquashedInsts            15542                       # Number of squashed instructions skipped by dispatch
system.cpu0.iew.iewDispLoadInsts              5697630                       # Number of dispatched load instructions
system.cpu0.iew.iewDispStoreInsts              294459                       # Number of dispatched store instructions
system.cpu0.iew.iewDispNonSpecInsts              6620                       # Number of dispatched non-speculative instructions
system.cpu0.iew.iewIQFullEvents                 30975                       # Number of times the IQ has become full, causing a stall
system.cpu0.iew.iewLSQFullEvents                59102                       # Number of times the LSQ has become full, causing a stall
system.cpu0.iew.memOrderViolationEvents            26                       # Number of memory order violations
system.cpu0.iew.predictedTakenIncorrect        154979                       # Number of branches that were predicted taken incorrectly
system.cpu0.iew.predictedNotTakenIncorrect       151165                       # Number of branches that were predicted not taken incorrectly
system.cpu0.iew.branchMispredicts              306144                       # Number of branch mispredicts detected at execute
system.cpu0.iew.iewExecutedInsts             20995122                       # Number of executed instructions
system.cpu0.iew.iewExecLoadInsts              3237154                       # Number of load instructions executed
system.cpu0.iew.iewExecSquashedInsts           431610                       # Number of squashed instructions skipped in execute
system.cpu0.iew.exec_swp                            0                       # number of swp insts executed
system.cpu0.iew.exec_nop                            0                       # number of nop insts executed
system.cpu0.iew.exec_refs                     3438254                       # number of memory reference insts executed
system.cpu0.iew.exec_branches                 2572384                       # Number of branches executed
system.cpu0.iew.exec_stores                    201100                       # Number of stores executed
system.cpu0.iew.exec_rate                    0.687583                       # Inst execution rate
system.cpu0.iew.wb_sent                      20649888                       # cumulative count of insts sent to commit
system.cpu0.iew.wb_count                     20584213                       # cumulative count of insts written-back
system.cpu0.iew.wb_producers                 15354659                       # num instructions producing a value
system.cpu0.iew.wb_consumers                 24372987                       # num instructions consuming a value
system.cpu0.iew.wb_rate                      0.674126                       # insts written-back per cycle
system.cpu0.iew.wb_fanout                    0.629987                       # average fanout of values written-back
system.cpu0.commit.commitSquashedInsts       18074022                       # The number of squashed insts skipped by commit
system.cpu0.commit.commitNonSpecStalls              1                       # The number of times commit has been forced to stall to communicate backwards
system.cpu0.commit.branchMispredicts           277649                       # The number of times a branch was mispredicted
system.cpu0.commit.committed_per_cycle::samples     28004968                       # Number of insts commited each cycle
system.cpu0.commit.committed_per_cycle::mean     0.419693                       # Number of insts commited each cycle
system.cpu0.commit.committed_per_cycle::stdev     1.119066                       # Number of insts commited each cycle
system.cpu0.commit.committed_per_cycle::underflows            0      0.00%      0.00% # Number of insts commited each cycle
system.cpu0.commit.committed_per_cycle::0     22845298     81.58%     81.58% # Number of insts commited each cycle
system.cpu0.commit.committed_per_cycle::1      2381580      8.50%     90.08% # Number of insts commited each cycle
system.cpu0.commit.committed_per_cycle::2       568886      2.03%     92.11% # Number of insts commited each cycle
system.cpu0.commit.committed_per_cycle::3      1565920      5.59%     97.70% # Number of insts commited each cycle
system.cpu0.commit.committed_per_cycle::4       271720      0.97%     98.67% # Number of insts commited each cycle
system.cpu0.commit.committed_per_cycle::5       154099      0.55%     99.22% # Number of insts commited each cycle
system.cpu0.commit.committed_per_cycle::6        23145      0.08%     99.31% # Number of insts commited each cycle
system.cpu0.commit.committed_per_cycle::7        14425      0.05%     99.36% # Number of insts commited each cycle
system.cpu0.commit.committed_per_cycle::8       179895      0.64%    100.00% # Number of insts commited each cycle
system.cpu0.commit.committed_per_cycle::overflows            0      0.00%    100.00% # Number of insts commited each cycle
system.cpu0.commit.committed_per_cycle::min_value            0                       # Number of insts commited each cycle
system.cpu0.commit.committed_per_cycle::max_value            8                       # Number of insts commited each cycle
system.cpu0.commit.committed_per_cycle::total     28004968                       # Number of insts commited each cycle
system.cpu0.commit.committedInsts             5881479                       # Number of instructions committed
system.cpu0.commit.committedOps              11753492                       # Number of ops (including micro ops) committed
system.cpu0.commit.swp_count                        0                       # Number of s/w prefetches committed
system.cpu0.commit.refs                       2347854                       # Number of memory references committed
system.cpu0.commit.loads                      2230677                       # Number of loads committed
system.cpu0.commit.membars                          0                       # Number of memory barriers committed
system.cpu0.commit.branches                   2123675                       # Number of branches committed
system.cpu0.commit.vec_insts                        0                       # Number of committed Vector instructions.
system.cpu0.commit.fp_insts                     46812                       # Number of committed floating point instructions.
system.cpu0.commit.int_insts                 11706214                       # Number of committed integer instructions.
system.cpu0.commit.function_calls               20629                       # Number of function calls committed.
system.cpu0.commit.op_class_0::No_OpClass        14073      0.12%      0.12% # Class of committed instruction
system.cpu0.commit.op_class_0::IntAlu         9316715     79.27%     79.39% # Class of committed instruction
system.cpu0.commit.op_class_0::IntMult            825      0.01%     79.39% # Class of committed instruction
system.cpu0.commit.op_class_0::IntDiv           34017      0.29%     79.68% # Class of committed instruction
system.cpu0.commit.op_class_0::FloatAdd         40008      0.34%     80.02% # Class of committed instruction
system.cpu0.commit.op_class_0::FloatCmp             0      0.00%     80.02% # Class of committed instruction
system.cpu0.commit.op_class_0::FloatCvt             0      0.00%     80.02% # Class of committed instruction
system.cpu0.commit.op_class_0::FloatMult            0      0.00%     80.02% # Class of committed instruction
system.cpu0.commit.op_class_0::FloatMultAcc            0      0.00%     80.02% # Class of committed instruction
system.cpu0.commit.op_class_0::FloatDiv             0      0.00%     80.02% # Class of committed instruction
system.cpu0.commit.op_class_0::FloatMisc            0      0.00%     80.02% # Class of committed instruction
system.cpu0.commit.op_class_0::FloatSqrt            0      0.00%     80.02% # Class of committed instruction
system.cpu0.commit.op_class_0::SimdAdd              0      0.00%     80.02% # Class of committed instruction
system.cpu0.commit.op_class_0::SimdAddAcc            0      0.00%     80.02% # Class of committed instruction
system.cpu0.commit.op_class_0::SimdAlu              0      0.00%     80.02% # Class of committed instruction
system.cpu0.commit.op_class_0::SimdCmp              0      0.00%     80.02% # Class of committed instruction
system.cpu0.commit.op_class_0::SimdCvt              0      0.00%     80.02% # Class of committed instruction
system.cpu0.commit.op_class_0::SimdMisc             0      0.00%     80.02% # Class of committed instruction
system.cpu0.commit.op_class_0::SimdMult             0      0.00%     80.02% # Class of committed instruction
system.cpu0.commit.op_class_0::SimdMultAcc            0      0.00%     80.02% # Class of committed instruction
system.cpu0.commit.op_class_0::SimdShift            0      0.00%     80.02% # Class of committed instruction
system.cpu0.commit.op_class_0::SimdShiftAcc            0      0.00%     80.02% # Class of committed instruction
system.cpu0.commit.op_class_0::SimdSqrt             0      0.00%     80.02% # Class of committed instruction
system.cpu0.commit.op_class_0::SimdFloatAdd            0      0.00%     80.02% # Class of committed instruction
system.cpu0.commit.op_class_0::SimdFloatAlu            0      0.00%     80.02% # Class of committed instruction
system.cpu0.commit.op_class_0::SimdFloatCmp            0      0.00%     80.02% # Class of committed instruction
system.cpu0.commit.op_class_0::SimdFloatCvt            0      0.00%     80.02% # Class of committed instruction
system.cpu0.commit.op_class_0::SimdFloatDiv            0      0.00%     80.02% # Class of committed instruction
system.cpu0.commit.op_class_0::SimdFloatMisc            0      0.00%     80.02% # Class of committed instruction
system.cpu0.commit.op_class_0::SimdFloatMult            0      0.00%     80.02% # Class of committed instruction
system.cpu0.commit.op_class_0::SimdFloatMultAcc            0      0.00%     80.02% # Class of committed instruction
system.cpu0.commit.op_class_0::SimdFloatSqrt            0      0.00%     80.02% # Class of committed instruction
system.cpu0.commit.op_class_0::MemRead        2223873     18.92%     98.95% # Class of committed instruction
system.cpu0.commit.op_class_0::MemWrite        117177      1.00%     99.94% # Class of committed instruction
system.cpu0.commit.op_class_0::FloatMemRead         6804      0.06%    100.00% # Class of committed instruction
system.cpu0.commit.op_class_0::FloatMemWrite            0      0.00%    100.00% # Class of committed instruction
system.cpu0.commit.op_class_0::IprAccess            0      0.00%    100.00% # Class of committed instruction
system.cpu0.commit.op_class_0::InstPrefetch            0      0.00%    100.00% # Class of committed instruction
system.cpu0.commit.op_class_0::total         11753492                       # Class of committed instruction
system.cpu0.commit.bw_lim_events               179895                       # number cycles where commit BW limit reached
system.cpu0.rob.rob_reads                    57652587                       # The number of ROB reads
system.cpu0.rob.rob_writes                   62187613                       # The number of ROB writes
system.cpu0.timesIdled                            416                       # Number of times that the entire CPU went into an idle state and unscheduled itself
system.cpu0.idleCycles                           4028                       # Total number of cycles that the CPU has spent unscheduled due to idling
system.cpu0.committedInsts                    5881479                       # Number of Instructions Simulated
system.cpu0.committedOps                     11753492                       # Number of Ops (including micro ops) Simulated
system.cpu0.cpi                              5.191668                       # CPI: Cycles Per Instruction
system.cpu0.cpi_total                        5.191668                       # CPI: Total CPI of All Threads
system.cpu0.ipc                              0.192616                       # IPC: Instructions Per Cycle
system.cpu0.ipc_total                        0.192616                       # IPC: Total IPC of All Threads
system.cpu0.int_regfile_reads                20879513                       # number of integer regfile reads
system.cpu0.int_regfile_writes               17839340                       # number of integer regfile writes
system.cpu0.fp_regfile_reads                   112444                       # number of floating regfile reads
system.cpu0.fp_regfile_writes                   56176                       # number of floating regfile writes
system.cpu0.cc_regfile_reads                 13670922                       # number of cc regfile reads
system.cpu0.cc_regfile_writes                 5723779                       # number of cc regfile writes
system.cpu0.misc_regfile_reads               11177720                       # number of misc regfile reads
system.cpu0.dcache.tags.pwrStateResidencyTicks::UNDEFINED  15267344125                       # Cumulative time (in ticks) in various power states
system.cpu0.dcache.tags.replacements          1177328                       # number of replacements
system.cpu0.dcache.tags.tagsinuse                 512                       # Cycle average of tags in use
system.cpu0.dcache.tags.total_refs            1338420                       # Total number of references to valid blocks.
system.cpu0.dcache.tags.sampled_refs          1177328                       # Sample count of references to valid blocks.
system.cpu0.dcache.tags.avg_refs             1.136828                       # Average number of references to valid blocks.
system.cpu0.dcache.tags.warmup_cycle                0                       # Cycle when the warmup percentage was hit.
system.cpu0.dcache.tags.occ_blocks::cpu0.data          512                       # Average occupied blocks per requestor
system.cpu0.dcache.tags.occ_percent::cpu0.data            1                       # Average percentage of cache occupancy
system.cpu0.dcache.tags.occ_percent::total            1                       # Average percentage of cache occupancy
system.cpu0.dcache.tags.occ_task_id_blocks::1024          512                       # Occupied blocks per task id
system.cpu0.dcache.tags.age_task_id_blocks_1024::0          467                       # Occupied blocks per task id
system.cpu0.dcache.tags.age_task_id_blocks_1024::1           45                       # Occupied blocks per task id
system.cpu0.dcache.tags.occ_task_id_percent::1024            1                       # Percentage of cache occupancy per task id
system.cpu0.dcache.tags.tag_accesses         14424048                       # Number of tag accesses
system.cpu0.dcache.tags.data_accesses        14424048                       # Number of data accesses
system.cpu0.dcache.pwrStateResidencyTicks::UNDEFINED  15267344125                       # Cumulative time (in ticks) in various power states
system.cpu0.dcache.ReadReq_hits::cpu0.data      1227341                       # number of ReadReq hits
system.cpu0.dcache.ReadReq_hits::total        1227341                       # number of ReadReq hits
system.cpu0.dcache.WriteReq_hits::cpu0.data       111944                       # number of WriteReq hits
system.cpu0.dcache.WriteReq_hits::total        111944                       # number of WriteReq hits
system.cpu0.dcache.demand_hits::cpu0.data      1339285                       # number of demand (read+write) hits
system.cpu0.dcache.demand_hits::total         1339285                       # number of demand (read+write) hits
system.cpu0.dcache.overall_hits::cpu0.data      1339285                       # number of overall hits
system.cpu0.dcache.overall_hits::total        1339285                       # number of overall hits
system.cpu0.dcache.ReadReq_misses::cpu0.data      1967162                       # number of ReadReq misses
system.cpu0.dcache.ReadReq_misses::total      1967162                       # number of ReadReq misses
system.cpu0.dcache.WriteReq_misses::cpu0.data         5233                       # number of WriteReq misses
system.cpu0.dcache.WriteReq_misses::total         5233                       # number of WriteReq misses
system.cpu0.dcache.demand_misses::cpu0.data      1972395                       # number of demand (read+write) misses
system.cpu0.dcache.demand_misses::total       1972395                       # number of demand (read+write) misses
system.cpu0.dcache.overall_misses::cpu0.data      1972395                       # number of overall misses
system.cpu0.dcache.overall_misses::total      1972395                       # number of overall misses
system.cpu0.dcache.ReadReq_miss_latency::cpu0.data  28492186000                       # number of ReadReq miss cycles
system.cpu0.dcache.ReadReq_miss_latency::total  28492186000                       # number of ReadReq miss cycles
system.cpu0.dcache.WriteReq_miss_latency::cpu0.data    357853984                       # number of WriteReq miss cycles
system.cpu0.dcache.WriteReq_miss_latency::total    357853984                       # number of WriteReq miss cycles
system.cpu0.dcache.demand_miss_latency::cpu0.data  28850039984                       # number of demand (read+write) miss cycles
system.cpu0.dcache.demand_miss_latency::total  28850039984                       # number of demand (read+write) miss cycles
system.cpu0.dcache.overall_miss_latency::cpu0.data  28850039984                       # number of overall miss cycles
system.cpu0.dcache.overall_miss_latency::total  28850039984                       # number of overall miss cycles
system.cpu0.dcache.ReadReq_accesses::cpu0.data      3194503                       # number of ReadReq accesses(hits+misses)
system.cpu0.dcache.ReadReq_accesses::total      3194503                       # number of ReadReq accesses(hits+misses)
system.cpu0.dcache.WriteReq_accesses::cpu0.data       117177                       # number of WriteReq accesses(hits+misses)
system.cpu0.dcache.WriteReq_accesses::total       117177                       # number of WriteReq accesses(hits+misses)
system.cpu0.dcache.demand_accesses::cpu0.data      3311680                       # number of demand (read+write) accesses
system.cpu0.dcache.demand_accesses::total      3311680                       # number of demand (read+write) accesses
[...]
system.l2.demand_miss_rate::cpu0.data        0.010276                       # miss rate for demand accesses
system.l2.demand_miss_rate::total            0.010278                       # miss rate for demand accesses
system.l2.overall_miss_rate::cpu0.inst       0.176471                       # miss rate for overall accesses
system.l2.overall_miss_rate::cpu0.data       0.010276                       # miss rate for overall accesses
system.l2.overall_miss_rate::total           0.010278                       # miss rate for overall accesses
system.l2.ReadExReq_avg_miss_latency::cpu0.data 264479.055258                       # average ReadExReq miss latency
system.l2.ReadExReq_avg_miss_latency::total 264479.055258                       # average ReadExReq miss latency
system.l2.ReadCleanReq_avg_miss_latency::cpu0.inst 262833.333333                       # average ReadCleanReq miss latency
system.l2.ReadCleanReq_avg_miss_latency::total 262833.333333                       # average ReadCleanReq miss latency
system.l2.ReadSharedReq_avg_miss_latency::cpu0.data 118326.667274                       # average ReadSharedReq miss latency
system.l2.ReadSharedReq_avg_miss_latency::total 118326.667274                       # average ReadSharedReq miss latency
system.l2.demand_avg_miss_latency::cpu0.inst 262833.333333                       # average overall miss latency
system.l2.demand_avg_miss_latency::cpu0.data 131881.220036                       # average overall miss latency
system.l2.demand_avg_miss_latency::total 131913.684819                       # average overall miss latency
system.l2.overall_avg_miss_latency::cpu0.inst 262833.333333                       # average overall miss latency
system.l2.overall_avg_miss_latency::cpu0.data 131881.220036                       # average overall miss latency
system.l2.overall_avg_miss_latency::total 131913.684819                       # average overall miss latency
system.l2.blocked_cycles::no_mshrs                  0                       # number of cycles access was blocked
system.l2.blocked_cycles::no_targets                0                       # number of cycles access was blocked
system.l2.blocked::no_mshrs                         0                       # number of cycles access was blocked
system.l2.blocked::no_targets                       0                       # number of cycles access was blocked
system.l2.avg_blocked_cycles::no_mshrs            nan                       # average number of cycles each access was blocked
system.l2.avg_blocked_cycles::no_targets          nan                       # average number of cycles each access was blocked
system.l2.writebacks::writebacks                 3895                       # number of writebacks
system.l2.writebacks::total                      3895                       # number of writebacks
system.l2.ReadExReq_mshr_misses::cpu0.data         1122                       # number of ReadExReq MSHR misses
system.l2.ReadExReq_mshr_misses::total           1122                       # number of ReadExReq MSHR misses
system.l2.ReadCleanReq_mshr_misses::cpu0.inst            3                       # number of ReadCleanReq MSHR misses
system.l2.ReadCleanReq_mshr_misses::total            3                       # number of ReadCleanReq MSHR misses
system.l2.ReadSharedReq_mshr_misses::cpu0.data        10976                       # number of ReadSharedReq MSHR misses
system.l2.ReadSharedReq_mshr_misses::total        10976                       # number of ReadSharedReq MSHR misses
system.l2.demand_mshr_misses::cpu0.inst             3                       # number of demand (read+write) MSHR misses
system.l2.demand_mshr_misses::cpu0.data         12098                       # number of demand (read+write) MSHR misses
system.l2.demand_mshr_misses::total             12101                       # number of demand (read+write) MSHR misses
system.l2.overall_mshr_misses::cpu0.inst            3                       # number of overall MSHR misses
system.l2.overall_mshr_misses::cpu0.data        12098                       # number of overall MSHR misses
system.l2.overall_mshr_misses::total            12101                       # number of overall MSHR misses
system.l2.ReadExReq_mshr_miss_latency::cpu0.data    285525500                       # number of ReadExReq MSHR miss cycles
system.l2.ReadExReq_mshr_miss_latency::total    285525500                       # number of ReadExReq MSHR miss cycles
system.l2.ReadCleanReq_mshr_miss_latency::cpu0.inst       758500                       # number of ReadCleanReq MSHR miss cycles
system.l2.ReadCleanReq_mshr_miss_latency::total       758500                       # number of ReadCleanReq MSHR miss cycles
system.l2.ReadSharedReq_mshr_miss_latency::cpu0.data   1188993500                       # number of ReadSharedReq MSHR miss cycles
system.l2.ReadSharedReq_mshr_miss_latency::total   1188993500                       # number of ReadSharedReq MSHR miss cycles
system.l2.demand_mshr_miss_latency::cpu0.inst       758500                       # number of demand (read+write) MSHR miss cycles
system.l2.demand_mshr_miss_latency::cpu0.data   1474519000                       # number of demand (read+write) MSHR miss cycles
system.l2.demand_mshr_miss_latency::total   1475277500                       # number of demand (read+write) MSHR miss cycles
system.l2.overall_mshr_miss_latency::cpu0.inst       758500                       # number of overall MSHR miss cycles
system.l2.overall_mshr_miss_latency::cpu0.data   1474519000                       # number of overall MSHR miss cycles
system.l2.overall_mshr_miss_latency::total   1475277500                       # number of overall MSHR miss cycles
system.l2.ReadExReq_mshr_miss_rate::cpu0.data     0.215521                       # mshr miss rate for ReadExReq accesses
system.l2.ReadExReq_mshr_miss_rate::total     0.215521                       # mshr miss rate for ReadExReq accesses
system.l2.ReadCleanReq_mshr_miss_rate::cpu0.inst     0.176471                       # mshr miss rate for ReadCleanReq accesses
system.l2.ReadCleanReq_mshr_miss_rate::total     0.176471                       # mshr miss rate for ReadCleanReq accesses
system.l2.ReadSharedReq_mshr_miss_rate::cpu0.data     0.009364                       # mshr miss rate for ReadSharedReq accesses
system.l2.ReadSharedReq_mshr_miss_rate::total     0.009364                       # mshr miss rate for ReadSharedReq accesses
system.l2.demand_mshr_miss_rate::cpu0.inst     0.176471                       # mshr miss rate for demand accesses
system.l2.demand_mshr_miss_rate::cpu0.data     0.010276                       # mshr miss rate for demand accesses
system.l2.demand_mshr_miss_rate::total       0.010278                       # mshr miss rate for demand accesses
system.l2.overall_mshr_miss_rate::cpu0.inst     0.176471                       # mshr miss rate for overall accesses
system.l2.overall_mshr_miss_rate::cpu0.data     0.010276                       # mshr miss rate for overall accesses
system.l2.overall_mshr_miss_rate::total      0.010278                       # mshr miss rate for overall accesses
system.l2.ReadExReq_avg_mshr_miss_latency::cpu0.data 254479.055258                       # average ReadExReq mshr miss latency
system.l2.ReadExReq_avg_mshr_miss_latency::total 254479.055258                       # average ReadExReq mshr miss latency
system.l2.ReadCleanReq_avg_mshr_miss_latency::cpu0.inst 252833.333333                       # average ReadCleanReq mshr miss latency
system.l2.ReadCleanReq_avg_mshr_miss_latency::total 252833.333333                       # average ReadCleanReq mshr miss latency
system.l2.ReadSharedReq_avg_mshr_miss_latency::cpu0.data 108326.667274                       # average ReadSharedReq mshr miss latency
system.l2.ReadSharedReq_avg_mshr_miss_latency::total 108326.667274                       # average ReadSharedReq mshr miss latency
system.l2.demand_avg_mshr_miss_latency::cpu0.inst 252833.333333                       # average overall mshr miss latency
system.l2.demand_avg_mshr_miss_latency::cpu0.data 121881.220036                       # average overall mshr miss latency
system.l2.demand_avg_mshr_miss_latency::total 121913.684819                       # average overall mshr miss latency
system.l2.overall_avg_mshr_miss_latency::cpu0.inst 252833.333333                       # average overall mshr miss latency
system.l2.overall_avg_mshr_miss_latency::cpu0.data 121881.220036                       # average overall mshr miss latency
system.l2.overall_avg_mshr_miss_latency::total 121913.684819                       # average overall mshr miss latency
system.membus.snoop_filter.tot_requests         24198                       # Total number of requests made to the snoop filter.
system.membus.snoop_filter.hit_single_requests        12099                       # Number of requests hitting in the snoop filter with a single holder of the requested data.
system.membus.snoop_filter.hit_multi_requests            0                       # Number of requests hitting in the snoop filter with multiple (>1) holders of the requested data.
system.membus.snoop_filter.tot_snoops               0                       # Total number of snoops made to the snoop filter.
system.membus.snoop_filter.hit_single_snoops            0                       # Number of snoops hitting in the snoop filter with a single holder of the requested data.
system.membus.snoop_filter.hit_multi_snoops            0                       # Number of snoops hitting in the snoop filter with multiple (>1) holders of the requested data.
system.membus.pwrStateResidencyTicks::UNDEFINED  15267344125                       # Cumulative time (in ticks) in various power states
system.membus.trans_dist::ReadResp              10979                       # Transaction distribution
system.membus.trans_dist::WritebackDirty         3895                       # Transaction distribution
system.membus.trans_dist::CleanEvict             8202                       # Transaction distribution
system.membus.trans_dist::ReadExReq              1122                       # Transaction distribution
system.membus.trans_dist::ReadExResp             1122                       # Transaction distribution
system.membus.trans_dist::ReadSharedReq         10979                       # Transaction distribution
system.membus.pkt_count_system.l2.mem_side::system.mem_ctrls.port        36299                       # Packet count per connected master and slave (bytes)
system.membus.pkt_count_system.l2.mem_side::total        36299                       # Packet count per connected master and slave (bytes)
system.membus.pkt_count::total                  36299                       # Packet count per connected master and slave (bytes)
system.membus.pkt_size_system.l2.mem_side::system.mem_ctrls.port      1023744                       # Cumulative packet size per connected master and slave (bytes)
system.membus.pkt_size_system.l2.mem_side::total      1023744                       # Cumulative packet size per connected master and slave (bytes)
system.membus.pkt_size::total                 1023744                       # Cumulative packet size per connected master and slave (bytes)
system.membus.snoops                                0                       # Total snoops (count)
system.membus.snoopTraffic                          0                       # Total snoop traffic (bytes)
system.membus.snoop_fanout::samples             12101                       # Request fanout histogram
system.membus.snoop_fanout::mean                    0                       # Request fanout histogram
system.membus.snoop_fanout::stdev                   0                       # Request fanout histogram
system.membus.snoop_fanout::underflows              0      0.00%      0.00% # Request fanout histogram
system.membus.snoop_fanout::0                   12101    100.00%    100.00% # Request fanout histogram
system.membus.snoop_fanout::1                       0      0.00%    100.00% # Request fanout histogram
system.membus.snoop_fanout::overflows               0      0.00%    100.00% # Request fanout histogram
system.membus.snoop_fanout::min_value               0                       # Request fanout histogram
system.membus.snoop_fanout::max_value               0                       # Request fanout histogram
system.membus.snoop_fanout::total               12101                       # Request fanout histogram
system.membus.reqLayer12.occupancy           42947000                       # Layer occupancy (ticks)
system.membus.reqLayer12.utilization              0.3                       # Layer utilization (%)
system.membus.respLayer1.occupancy           66114750                       # Layer occupancy (ticks)
system.membus.respLayer1.utilization              0.4                       # Layer utilization (%)
system.tol2bus.snoop_filter.tot_requests      2354689                       # Total number of requests made to the snoop filter.
system.tol2bus.snoop_filter.hit_single_requests      1177347                       # Number of requests hitting in the snoop filter with a single holder of the requested data.
system.tol2bus.snoop_filter.hit_multi_requests         2576                       # Number of requests hitting in the snoop filter with multiple (>1) holders of the requested data.
system.tol2bus.snoop_filter.tot_snoops             12                       # Total number of snoops made to the snoop filter.
system.tol2bus.snoop_filter.hit_single_snoops           12                       # Number of snoops hitting in the snoop filter with a single holder of the requested data.
system.tol2bus.snoop_filter.hit_multi_snoops            0                       # Number of snoops hitting in the snoop filter with multiple (>1) holders of the requested data.
system.tol2bus.pwrStateResidencyTicks::UNDEFINED  15267344125                       # Cumulative time (in ticks) in various power states
system.tol2bus.trans_dist::ReadResp           1172139                       # Transaction distribution
system.tol2bus.trans_dist::WritebackDirty       985653                       # Transaction distribution
system.tol2bus.trans_dist::WritebackClean           17                       # Transaction distribution
system.tol2bus.trans_dist::CleanEvict          203784                       # Transaction distribution
system.tol2bus.trans_dist::ReadExReq             5206                       # Transaction distribution
system.tol2bus.trans_dist::ReadExResp            5206                       # Transaction distribution
system.tol2bus.trans_dist::ReadCleanReq            17                       # Transaction distribution
system.tol2bus.trans_dist::ReadSharedReq      1172121                       # Transaction distribution
system.tol2bus.pkt_count_system.cpu0.icache.mem_side::system.l2.cpu_side           51                       # Packet count per connected master and slave (bytes)
system.tol2bus.pkt_count_system.cpu0.dcache.mem_side::system.l2.cpu_side      3531983                       # Packet count per connected master and slave (bytes)
system.tol2bus.pkt_count::total               3532034                       # Packet count per connected master and slave (bytes)
system.tol2bus.pkt_size_system.cpu0.icache.mem_side::system.l2.cpu_side         2176                       # Cumulative packet size per connected master and slave (bytes)
system.tol2bus.pkt_size_system.cpu0.dcache.mem_side::system.l2.cpu_side    138181504                       # Cumulative packet size per connected master and slave (bytes)
system.tol2bus.pkt_size::total              138183680                       # Cumulative packet size per connected master and slave (bytes)
system.tol2bus.snoops                           12109                       # Total snoops (count)
system.tol2bus.snoopTraffic                    249280                       # Total snoop traffic (bytes)
system.tol2bus.snoop_fanout::samples          1189453                       # Request fanout histogram
system.tol2bus.snoop_fanout::mean            0.002177                       # Request fanout histogram
system.tol2bus.snoop_fanout::stdev           0.046613                       # Request fanout histogram
system.tol2bus.snoop_fanout::underflows             0      0.00%      0.00% # Request fanout histogram
system.tol2bus.snoop_fanout::0                1186863     99.78%     99.78% # Request fanout histogram
system.tol2bus.snoop_fanout::1                   2590      0.22%    100.00% # Request fanout histogram
system.tol2bus.snoop_fanout::2                      0      0.00%    100.00% # Request fanout histogram
system.tol2bus.snoop_fanout::3                      0      0.00%    100.00% # Request fanout histogram
system.tol2bus.snoop_fanout::4                      0      0.00%    100.00% # Request fanout histogram
system.tol2bus.snoop_fanout::5                      0      0.00%    100.00% # Request fanout histogram
system.tol2bus.snoop_fanout::6                      0      0.00%    100.00% # Request fanout histogram
system.tol2bus.snoop_fanout::7                      0      0.00%    100.00% # Request fanout histogram
system.tol2bus.snoop_fanout::8                      0      0.00%    100.00% # Request fanout histogram
system.tol2bus.snoop_fanout::9                      0      0.00%    100.00% # Request fanout histogram
system.tol2bus.snoop_fanout::10                     0      0.00%    100.00% # Request fanout histogram
system.tol2bus.snoop_fanout::11                     0      0.00%    100.00% # Request fanout histogram
system.tol2bus.snoop_fanout::12                     0      0.00%    100.00% # Request fanout histogram
system.tol2bus.snoop_fanout::13                     0      0.00%    100.00% # Request fanout histogram
system.tol2bus.snoop_fanout::14                     0      0.00%    100.00% # Request fanout histogram
system.tol2bus.snoop_fanout::15                     0      0.00%    100.00% # Request fanout histogram
system.tol2bus.snoop_fanout::16                     0      0.00%    100.00% # Request fanout histogram
system.tol2bus.snoop_fanout::17                     0      0.00%    100.00% # Request fanout histogram
system.tol2bus.snoop_fanout::18                     0      0.00%    100.00% # Request fanout histogram
system.tol2bus.snoop_fanout::19                     0      0.00%    100.00% # Request fanout histogram
system.tol2bus.snoop_fanout::20                     0      0.00%    100.00% # Request fanout histogram
system.tol2bus.snoop_fanout::21                     0      0.00%    100.00% # Request fanout histogram
system.tol2bus.snoop_fanout::22                     0      0.00%    100.00% # Request fanout histogram
system.tol2bus.snoop_fanout::23                     0      0.00%    100.00% # Request fanout histogram
system.tol2bus.snoop_fanout::24                     0      0.00%    100.00% # Request fanout histogram
system.tol2bus.snoop_fanout::overflows              0      0.00%    100.00% # Request fanout histogram
system.tol2bus.snoop_fanout::min_value              0                       # Request fanout histogram
system.tol2bus.snoop_fanout::max_value              1                       # Request fanout histogram
system.tol2bus.snoop_fanout::total            1189453                       # Request fanout histogram
system.tol2bus.reqLayer0.occupancy         2159119500                       # Layer occupancy (ticks)
system.tol2bus.reqLayer0.utilization             14.1                       # Layer utilization (%)
system.tol2bus.respLayer0.occupancy             25500                       # Layer occupancy (ticks)
system.tol2bus.respLayer0.utilization             0.0                       # Layer utilization (%)
system.tol2bus.respLayer1.occupancy        1765992000                       # Layer occupancy (ticks)
system.tol2bus.respLayer1.utilization            11.6                       # Layer utilization (%)

---------- End Simulation Statistics   ----------
