
---------- Begin Simulation Statistics ----------
sim_seconds                                  0.015267                       # Number of seconds simulated
sim_ticks                                 15267344125                       # Number of ticks simulated
final_tick                               2259566930500                       # Number of ticks from beginning of simulation (restored from checkpoints and never reset)
sim_freq                                 1000000000000                       # Frequency of simulated ticks
host_inst_rate                               11995203                       # Simulator instruction rate (inst/s)
host_op_rate                                 21921977                       # Simulator op (including micro ops) rate (op/s)
host_tick_rate                               36230032                       # Simulator tick rate (ticks/s)
host_mem_usage                                3428856                       # Number of bytes of host memory used
host_seconds                                   421.40                       # Real time elapsed on the host
sim_insts                                  5054781071                       # Number of instructions simulated
sim_ops                                    9237925659                       # Number of ops (including micro ops) simulated
system.voltage_domain.voltage                       1                       # Voltage in Volts
system.clk_domain.clock                          1000                       # Clock period in ticks
system.mem_ctrls.pwrStateResidencyTicks::UNDEFINED  15267344125                       # Cumulative time (in ticks) in various power states
system.mem_ctrls.bytes_read::cpu0.inst             64                       # Number of bytes read from this memory
system.mem_ctrls.bytes_read::cpu0.data         912192                       # Number of bytes read from this memory
system.mem_ctrls.bytes_read::total             912256                       # Number of bytes read from this memory
system.mem_ctrls.bytes_inst_read::cpu0.inst           64                       # Number of instructions bytes read from this memory
system.mem_ctrls.bytes_inst_read::total            64                       # Number of instructions bytes read from this memory
system.mem_ctrls.bytes_written::writebacks       870464                       # Number of bytes written to this memory
system.mem_ctrls.bytes_written::total          870464                       # Number of bytes written to this memory
system.mem_ctrls.num_reads::cpu0.inst               1                       # Number of read requests responded to by this memory
system.mem_ctrls.num_reads::cpu0.data           14253                       # Number of read requests responded to by this memory
system.mem_ctrls.num_reads::total               14254                       # Number of read requests responded to by this memory
system.mem_ctrls.num_writes::writebacks         13601                       # Number of write requests responded to by this memory
system.mem_ctrls.num_writes::total              13601                       # Number of write requests responded to by this memory
system.mem_ctrls.bw_read::cpu0.inst              4192                       # Total read bandwidth from this memory (bytes/s)
system.mem_ctrls.bw_read::cpu0.data          59747916                       # Total read bandwidth from this memory (bytes/s)
system.mem_ctrls.bw_read::total              59752108                       # Total read bandwidth from this memory (bytes/s)
system.mem_ctrls.bw_inst_read::cpu0.inst         4192                       # Instruction read bandwidth from this memory (bytes/s)
system.mem_ctrls.bw_inst_read::total             4192                       # Instruction read bandwidth from this memory (bytes/s)
system.mem_ctrls.bw_write::writebacks        57014763                       # Write bandwidth from this memory (bytes/s)
system.mem_ctrls.bw_write::total             57014763                       # Write bandwidth from this memory (bytes/s)
system.mem_ctrls.bw_total::writebacks        57014763                       # Total bandwidth to/from this memory (bytes/s)
system.mem_ctrls.bw_total::cpu0.inst             4192                       # Total bandwidth to/from this memory (bytes/s)
system.mem_ctrls.bw_total::cpu0.data         59747916                       # Total bandwidth to/from this memory (bytes/s)
system.mem_ctrls.bw_total::total            116766871                       # Total bandwidth to/from this memory (bytes/s)
system.mem_ctrls.readReqs                       14253                       # Number of read requests accepted
system.mem_ctrls.writeReqs                      13601                       # Number of write requests accepted
system.mem_ctrls.readBursts                     14253                       # Number of DRAM read bursts, including those serviced by the write queue
system.mem_ctrls.writeBursts                    13601                       # Number of DRAM write bursts, including those merged in the write queue
system.mem_ctrls.bytesReadDRAM                 912064                       # Total number of bytes read from DRAM
system.mem_ctrls.bytesReadWrQ                     192                       # Total number of bytes read from write queue
system.mem_ctrls.bytesWritten                  870080                       # Total number of bytes written to DRAM
system.mem_ctrls.bytesReadSys                  912192                       # Total read bytes from the system interface side
system.mem_ctrls.bytesWrittenSys               870464                       # Total written bytes from the system interface side
system.mem_ctrls.servicedByWrQ                      3                       # Number of DRAM read bursts serviced by the write queue
system.mem_ctrls.mergedWrBursts                     0                       # Number of DRAM write bursts merged with an existing one
system.mem_ctrls.neitherReadNorWriteReqs            0                       # Number of requests that are neither read nor write
system.mem_ctrls.perBankRdBursts::0               930                       # Per bank write bursts
system.mem_ctrls.perBankRdBursts::1               965                       # Per bank write bursts
system.mem_ctrls.perBankRdBursts::2               918                       # Per bank write bursts
system.mem_ctrls.perBankRdBursts::3               795                       # Per bank write bursts
system.mem_ctrls.perBankRdBursts::4               784                       # Per bank write bursts
system.mem_ctrls.perBankRdBursts::5               815                       # Per bank write bursts
system.mem_ctrls.perBankRdBursts::6               830                       # Per bank write bursts
system.mem_ctrls.perBankRdBursts::7               793                       # Per bank write bursts
system.mem_ctrls.perBankRdBursts::8               876                       # Per bank write bursts
system.mem_ctrls.perBankRdBursts::9               834                       # Per bank write bursts
system.mem_ctrls.perBankRdBursts::10              797                       # Per bank write bursts
system.mem_ctrls.perBankRdBursts::11              853                       # Per bank write bursts
system.mem_ctrls.perBankRdBursts::12              977                       # Per bank write bursts
system.mem_ctrls.perBankRdBursts::13             1113                       # Per bank write bursts
system.mem_ctrls.perBankRdBursts::14             1056                       # Per bank write bursts
system.mem_ctrls.perBankRdBursts::15              915                       # Per bank write bursts
system.mem_ctrls.perBankWrBursts::0               888                       # Per bank write bursts
system.mem_ctrls.perBankWrBursts::1               922                       # Per bank write bursts
system.mem_ctrls.perBankWrBursts::2               877                       # Per bank write bursts
system.mem_ctrls.perBankWrBursts::3               772                       # Per bank write bursts
system.mem_ctrls.perBankWrBursts::4               762                       # Per bank write bursts
system.mem_ctrls.perBankWrBursts::5               789                       # Per bank write bursts
system.mem_ctrls.perBankWrBursts::6               794                       # Per bank write bursts
system.mem_ctrls.perBankWrBursts::7               749                       # Per bank write bursts
system.mem_ctrls.perBankWrBursts::8               837                       # Per bank write bursts
system.mem_ctrls.perBankWrBursts::9               781                       # Per bank write bursts
system.mem_ctrls.perBankWrBursts::10              753                       # Per bank write bursts
system.mem_ctrls.perBankWrBursts::11              838                       # Per bank write bursts
system.mem_ctrls.perBankWrBursts::12              913                       # Per bank write bursts
system.mem_ctrls.perBankWrBursts::13             1046                       # Per bank write bursts
system.mem_ctrls.perBankWrBursts::14             1003                       # Per bank write bursts
system.mem_ctrls.perBankWrBursts::15              871                       # Per bank write bursts
system.mem_ctrls.numRdRetry                         0                       # Number of times read queue was full causing retry
system.mem_ctrls.numWrRetry                         0                       # Number of times write queue was full causing retry
system.mem_ctrls.totGap                   15266645000                       # Total gap between requests
system.mem_ctrls.readPktSize::0                     0                       # Read request sizes (log2)
system.mem_ctrls.readPktSize::1                     0                       # Read request sizes (log2)
system.mem_ctrls.readPktSize::2                     0                       # Read request sizes (log2)
system.mem_ctrls.readPktSize::3                     0                       # Read request sizes (log2)
system.mem_ctrls.readPktSize::4                     0                       # Read request sizes (log2)
system.mem_ctrls.readPktSize::5                     0                       # Read request sizes (log2)
system.mem_ctrls.readPktSize::6                 14253                       # Read request sizes (log2)
system.mem_ctrls.writePktSize::0                    0                       # Write request sizes (log2)
system.mem_ctrls.writePktSize::1                    0                       # Write request sizes (log2)
system.mem_ctrls.writePktSize::2                    0                       # Write request sizes (log2)
system.mem_ctrls.writePktSize::3                    0                       # Write request sizes (log2)
system.mem_ctrls.writePktSize::4                    0                       # Write request sizes (log2)
system.mem_ctrls.writePktSize::5                    0                       # Write request sizes (log2)
system.mem_ctrls.writePktSize::6                13601                       # Write request sizes (log2)
system.mem_ctrls.rdQLenPdf::0                   13874                       # What read queue length does an incoming req see
system.mem_ctrls.rdQLenPdf::1                     372                       # What read queue length does an incoming req see
system.mem_ctrls.rdQLenPdf::2                       4                       # What read queue length does an incoming req see
system.mem_ctrls.rdQLenPdf::3                       0                       # What read queue length does an incoming req see
system.mem_ctrls.rdQLenPdf::4                       0                       # What read queue length does an incoming req see
system.mem_ctrls.rdQLenPdf::5                       0                       # What read queue length does an incoming req see
system.mem_ctrls.rdQLenPdf::6                       0                       # What read queue length does an incoming req see
system.mem_ctrls.rdQLenPdf::7                       0                       # What read queue length does an incoming req see
system.mem_ctrls.rdQLenPdf::8                       0                       # What read queue length does an incoming req see
system.mem_ctrls.rdQLenPdf::9                       0                       # What read queue length does an incoming req see
system.mem_ctrls.rdQLenPdf::10                      0                       # What read queue length does an incoming req see
system.mem_ctrls.rdQLenPdf::11                      0                       # What read queue length does an incoming req see
system.mem_ctrls.rdQLenPdf::12                      0                       # What read queue length does an incoming req see
system.mem_ctrls.rdQLenPdf::13                      0                       # What read queue length does an incoming req see
system.mem_ctrls.rdQLenPdf::14                      0                       # What read queue length does an incoming req see
system.mem_ctrls.rdQLenPdf::15                      0                       # What read queue length does an incoming req see
system.mem_ctrls.rdQLenPdf::16                      0                       # What read queue length does an incoming req see
system.mem_ctrls.rdQLenPdf::17                      0                       # What read queue length does an incoming req see
system.mem_ctrls.rdQLenPdf::18                      0                       # What read queue length does an incoming req see
system.mem_ctrls.rdQLenPdf::19                      0                       # What read queue length does an incoming req see
system.mem_ctrls.rdQLenPdf::20                      0                       # What read queue length does an incoming req see
system.mem_ctrls.rdQLenPdf::21                      0                       # What read queue length does an incoming req see
system.mem_ctrls.rdQLenPdf::22                      0                       # What read queue length does an incoming req see
system.mem_ctrls.rdQLenPdf::23                      0                       # What read queue length does an incoming req see
system.mem_ctrls.rdQLenPdf::24                      0                       # What read queue length does an incoming req see
system.mem_ctrls.rdQLenPdf::25                      0                       # What read queue length does an incoming req see
system.mem_ctrls.rdQLenPdf::26                      0                       # What read queue length does an incoming req see
system.mem_ctrls.rdQLenPdf::27                      0                       # What read queue length does an incoming req see
system.mem_ctrls.rdQLenPdf::28                      0                       # What read queue length does an incoming req see
system.mem_ctrls.rdQLenPdf::29                      0                       # What read queue length does an incoming req see
system.mem_ctrls.rdQLenPdf::30                      0                       # What read queue length does an incoming req see
system.mem_ctrls.rdQLenPdf::31                      0                       # What read queue length does an incoming req see
system.mem_ctrls.wrQLenPdf::0                       0                       # What write queue length does an incoming req see
system.mem_ctrls.wrQLenPdf::1                       0                       # What write queue length does an incoming req see
system.mem_ctrls.wrQLenPdf::2                       0                       # What write queue length does an incoming req see
system.mem_ctrls.wrQLenPdf::3                       0                       # What write queue length does an incoming req see
system.mem_ctrls.wrQLenPdf::4                       0                       # What write queue length does an incoming req see
system.mem_ctrls.wrQLenPdf::5                       0                       # What write queue length does an incoming req see
system.mem_ctrls.wrQLenPdf::6                       0                       # What write queue length does an incoming req see
system.mem_ctrls.wrQLenPdf::7                       0                       # What write queue length does an incoming req see
system.mem_ctrls.wrQLenPdf::8                       0                       # What write queue length does an incoming req see
system.mem_ctrls.wrQLenPdf::9                       0                       # What write queue length does an incoming req see
system.mem_ctrls.wrQLenPdf::10                      0                       # What write queue length does an incoming req see
system.mem_ctrls.wrQLenPdf::11                      0                       # What write queue length does an incoming req see
system.mem_ctrls.wrQLenPdf::12                      0                       # What write queue length does an incoming req see
system.mem_ctrls.wrQLenPdf::13                      0                       # What write queue length does an incoming req see
system.mem_ctrls.wrQLenPdf::14                      0                       # What write queue length does an incoming req see
system.mem_ctrls.wrQLenPdf::15                    566                       # What write queue length does an incoming req see
system.mem_ctrls.wrQLenPdf::16                    576                       # What write queue length does an incoming req see
system.mem_ctrls.wrQLenPdf::17                    778                       # What write queue length does an incoming req see
system.mem_ctrls.wrQLenPdf::18                    779                       # What write queue length does an incoming req see
system.mem_ctrls.wrQLenPdf::19                    778                       # What write queue length does an incoming req see
system.mem_ctrls.wrQLenPdf::20                    778                       # What write queue length does an incoming req see
system.mem_ctrls.wrQLenPdf::21                    777                       # What write queue length does an incoming req see
system.mem_ctrls.wrQLenPdf::22                    780                       # What write queue length does an incoming req see
system.mem_ctrls.wrQLenPdf::23                    777                       # What write queue length does an incoming req see
system.mem_ctrls.wrQLenPdf::24                    777                       # What write queue length does an incoming req see
system.mem_ctrls.wrQLenPdf::25                    779                       # What write queue length does an incoming req see
system.mem_ctrls.wrQLenPdf::26                    777                       # What write queue length does an incoming req see
system.mem_ctrls.wrQLenPdf::27                    777                       # What write queue length does an incoming req see
system.mem_ctrls.wrQLenPdf::28                    777                       # What write queue length does an incoming req see
system.mem_ctrls.wrQLenPdf::29                    778                       # What write queue length does an incoming req see
system.mem_ctrls.wrQLenPdf::30                    790                       # What write queue length does an incoming req see
system.mem_ctrls.wrQLenPdf::31                    780                       # What write queue length does an incoming req see
system.mem_ctrls.wrQLenPdf::32                    777                       # What write queue length does an incoming req see
system.mem_ctrls.wrQLenPdf::33                      0                       # What write queue length does an incoming req see
system.mem_ctrls.wrQLenPdf::34                      0                       # What write queue length does an incoming req see
system.mem_ctrls.wrQLenPdf::35                      0                       # What write queue length does an incoming req see
system.mem_ctrls.wrQLenPdf::36                      0                       # What write queue length does an incoming req see
system.mem_ctrls.wrQLenPdf::37                      0                       # What write queue length does an incoming req see
system.mem_ctrls.wrQLenPdf::38                      0                       # What write queue length does an incoming req see
system.mem_ctrls.wrQLenPdf::39                      0                       # What write queue length does an incoming req see
system.mem_ctrls.wrQLenPdf::40                      0                       # What write queue length does an incoming req see
system.mem_ctrls.wrQLenPdf::41                      0                       # What write queue length does an incoming req see
system.mem_ctrls.wrQLenPdf::42                      0                       # What write queue length does an incoming req see
system.mem_ctrls.wrQLenPdf::43                      0                       # What write queue length does an incoming req see
system.mem_ctrls.wrQLenPdf::44                      0                       # What write queue length does an incoming req see
system.mem_ctrls.wrQLenPdf::45                      0                       # What write queue length does an incoming req see
system.mem_ctrls.wrQLenPdf::46                      0                       # What write queue length does an incoming req see
system.mem_ctrls.wrQLenPdf::47                      0                       # What write queue length does an incoming req see
system.mem_ctrls.wrQLenPdf::48                      0                       # What write queue length does an incoming req see
system.mem_ctrls.wrQLenPdf::49                      0                       # What write queue length does an incoming req see
system.mem_ctrls.wrQLenPdf::50                      0                       # What write queue length does an incoming req see
system.mem_ctrls.wrQLenPdf::51                      0                       # What write queue length does an incoming req see
system.mem_ctrls.wrQLenPdf::52                      0                       # What write queue length does an incoming req see
system.mem_ctrls.wrQLenPdf::53                      0                       # What write queue length does an incoming req see
system.mem_ctrls.wrQLenPdf::54                      0                       # What write queue length does an incoming req see
system.mem_ctrls.wrQLenPdf::55                      0                       # What write queue length does an incoming req see
system.mem_ctrls.wrQLenPdf::56                      0                       # What write queue length does an incoming req see
system.mem_ctrls.wrQLenPdf::57                      0                       # What write queue length does an incoming req see
system.mem_ctrls.wrQLenPdf::58                      0                       # What write queue length does an incoming req see
system.mem_ctrls.wrQLenPdf::59                      0                       # What write queue length does an incoming req see
system.mem_ctrls.wrQLenPdf::60                      0                       # What write queue length does an incoming req see
system.mem_ctrls.wrQLenPdf::61                      0                       # What write queue length does an incoming req see
system.mem_ctrls.wrQLenPdf::62                      0                       # What write queue length does an incoming req see
system.mem_ctrls.wrQLenPdf::63                      0                       # What write queue length does an incoming req see
system.mem_ctrls.bytesPerActivate::samples        17255                       # Bytes accessed per row activation
system.mem_ctrls.bytesPerActivate::mean    103.267922                       # Bytes accessed per row activation
system.mem_ctrls.bytesPerActivate::gmean    88.822310                       # Bytes accessed per row activation
system.mem_ctrls.bytesPerActivate::stdev    72.335745                       # Bytes accessed per row activation
system.mem_ctrls.bytesPerActivate::64-127        11248     65.19%     65.19% # Bytes accessed per row activation
system.mem_ctrls.bytesPerActivate::128-191         3633     21.05%     86.24% # Bytes accessed per row activation
system.mem_ctrls.bytesPerActivate::192-255         1249      7.24%     93.48% # Bytes accessed per row activation
system.mem_ctrls.bytesPerActivate::256-319          608      3.52%     97.00% # Bytes accessed per row activation
system.mem_ctrls.bytesPerActivate::320-383          248      1.44%     98.44% # Bytes accessed per row activation
system.mem_ctrls.bytesPerActivate::384-447          117      0.68%     99.12% # Bytes accessed per row activation
system.mem_ctrls.bytesPerActivate::448-511           73      0.42%     99.54% # Bytes accessed per row activation
system.mem_ctrls.bytesPerActivate::512-575           42      0.24%     99.79% # Bytes accessed per row activation
system.mem_ctrls.bytesPerActivate::576-639           19      0.11%     99.90% # Bytes accessed per row activation
system.mem_ctrls.bytesPerActivate::640-703           12      0.07%     99.97% # Bytes accessed per row activation
system.mem_ctrls.bytesPerActivate::704-767            5      0.03%     99.99% # Bytes accessed per row activation
system.mem_ctrls.bytesPerActivate::896-959            1      0.01%    100.00% # Bytes accessed per row activation
system.mem_ctrls.bytesPerActivate::total        17255                       # Bytes accessed per row activation
system.mem_ctrls.rdPerTurnAround::samples          777                       # Reads before turning the bus around for writes
system.mem_ctrls.rdPerTurnAround::mean      18.332046                       # Reads before turning the bus around for writes
system.mem_ctrls.rdPerTurnAround::gmean     18.275395                       # Reads before turning the bus around for writes
system.mem_ctrls.rdPerTurnAround::stdev      1.454788                       # Reads before turning the bus around for writes
system.mem_ctrls.rdPerTurnAround::16              104     13.38%     13.38% # Reads before turning the bus around for writes
system.mem_ctrls.rdPerTurnAround::17               72      9.27%     22.65% # Reads before turning the bus around for writes
system.mem_ctrls.rdPerTurnAround::18              285     36.68%     59.33% # Reads before turning the bus around for writes
system.mem_ctrls.rdPerTurnAround::19              178     22.91%     82.24% # Reads before turning the bus around for writes
system.mem_ctrls.rdPerTurnAround::20               87     11.20%     93.44% # Reads before turning the bus around for writes
system.mem_ctrls.rdPerTurnAround::21               28      3.60%     97.04% # Reads before turning the bus around for writes
system.mem_ctrls.rdPerTurnAround::22               15      1.93%     98.97% # Reads before turning the bus around for writes
system.mem_ctrls.rdPerTurnAround::23                6      0.77%     99.74% # Reads before turning the bus around for writes
system.mem_ctrls.rdPerTurnAround::24                2      0.26%    100.00% # Reads before turning the bus around for writes
system.mem_ctrls.rdPerTurnAround::total           777                       # Reads before turning the bus around for writes
system.mem_ctrls.wrPerTurnAround::samples          777                       # Writes before turning the bus around for reads
system.mem_ctrls.wrPerTurnAround::mean      17.496782                       # Writes before turning the bus around for reads
system.mem_ctrls.wrPerTurnAround::gmean     17.472287                       # Writes before turning the bus around for reads
system.mem_ctrls.wrPerTurnAround::stdev      0.911158                       # Writes before turning the bus around for reads
system.mem_ctrls.wrPerTurnAround::16              202     26.00%     26.00% # Writes before turning the bus around for reads
system.mem_ctrls.wrPerTurnAround::17               10      1.29%     27.28% # Writes before turning the bus around for reads
system.mem_ctrls.wrPerTurnAround::18              542     69.76%     97.04% # Writes before turning the bus around for reads
system.mem_ctrls.wrPerTurnAround::19               23      2.96%    100.00% # Writes before turning the bus around for reads
system.mem_ctrls.wrPerTurnAround::total           777                       # Writes before turning the bus around for reads
system.mem_ctrls.totQLat                    399713000                       # Total ticks spent queuing
system.mem_ctrls.totMemAccLat               666919250                       # Total ticks spent from burst creation until serviced by the DRAM
system.mem_ctrls.totBusLat                   71255000                       # Total ticks spent in databus transfers
system.mem_ctrls.avgQLat                     28050.04                       # Average queueing delay per DRAM burst
system.mem_ctrls.avgBusLat                    5000.35                       # Average bus latency per DRAM burst
system.mem_ctrls.avgMemAccLat                46801.35                       # Average memory access latency per DRAM burst
system.mem_ctrls.avgRdBW                        59.74                       # Average DRAM read bandwidth in MiByte/s
system.mem_ctrls.avgWrBW                        56.99                       # Average achieved write bandwidth in MiByte/s
system.mem_ctrls.avgRdBWSys                     59.75                       # Average system read bandwidth in MiByte/s
system.mem_ctrls.avgWrBWSys                     57.01                       # Average system write bandwidth in MiByte/s
system.mem_ctrls.peakBW                      12800.00                       # Theoretical peak bandwidth in MiByte/s
system.mem_ctrls.busUtil                         0.91                       # Data bus utilization in percentage
system.mem_ctrls.busUtilRead                     0.47                       # Data bus utilization in percentage for reads
system.mem_ctrls.busUtilWrite                    0.45                       # Data bus utilization in percentage for writes
system.mem_ctrls.avgRdQLen                       1.05                       # Average read queue length when enqueuing
system.mem_ctrls.avgWrQLen                      24.83                       # Average write queue length when enqueuing
system.mem_ctrls.readRowHits                     5416                       # Number of row buffer hits during reads
system.mem_ctrls.writeRowHits                    5173                       # Number of row buffer hits during writes
system.mem_ctrls.readRowHitRate                 38.01                       # Row buffer hit rate for reads
system.mem_ctrls.writeRowHitRate                38.03                       # Row buffer hit rate for writes
system.mem_ctrls.avgGap                     548095.25                       # Average gap between requests
system.mem_ctrls.pageHitRate                    38.02                       # Row buffer hit rate, read and write combined
system.mem_ctrls_0.actEnergy                 59104920                       # Energy for activate commands per rank (pJ)
system.mem_ctrls_0.preEnergy                 31411215                       # Energy for precharge commands per rank (pJ)
system.mem_ctrls_0.readEnergy                48766200                       # Energy for read commands per rank (pJ)
system.mem_ctrls_0.writeEnergy               34206660                       # Energy for write commands per rank (pJ)
system.mem_ctrls_0.refreshEnergy         1229894640.000000                       # Energy for refresh commands per rank (pJ)
system.mem_ctrls_0.actBackEnergy            928355580                       # Energy for active background per rank (pJ)
system.mem_ctrls_0.preBackEnergy             35822880                       # Energy for precharge background per rank (pJ)
system.mem_ctrls_0.actPowerDownEnergy      4277222430                       # Energy for active power-down per rank (pJ)
system.mem_ctrls_0.prePowerDownEnergy      1302900000                       # Energy for precharge power-down per rank (pJ)
system.mem_ctrls_0.selfRefreshEnergy        139593360                       # Energy for self refresh per rank (pJ)
system.mem_ctrls_0.totalEnergy             8087530005                       # Total energy per rank (pJ)
system.mem_ctrls_0.averagePower            529.727367                       # Core power per rank (mW)
system.mem_ctrls_0.totalIdleTime          13136818750                       # Total Idle time Per DRAM Rank
system.mem_ctrls_0.memoryStateTime::IDLE     35886000                       # Time in different power states
system.mem_ctrls_0.memoryStateTime::REF     520848000                       # Time in different power states
system.mem_ctrls_0.memoryStateTime::SREF    364777000                       # Time in different power states
system.mem_ctrls_0.memoryStateTime::PRE_PDN   3393003500                       # Time in different power states
system.mem_ctrls_0.memoryStateTime::ACT    1573010125                       # Time in different power states
system.mem_ctrls_0.memoryStateTime::ACT_PDN   9379819500                       # Time in different power states
system.mem_ctrls_1.actEnergy                 64110060                       # Energy for activate commands per rank (pJ)
system.mem_ctrls_1.preEnergy                 34071510                       # Energy for precharge commands per rank (pJ)
system.mem_ctrls_1.readEnergy                52985940                       # Energy for read commands per rank (pJ)
system.mem_ctrls_1.writeEnergy               36759240                       # Energy for write commands per rank (pJ)
system.mem_ctrls_1.refreshEnergy         1225592160.000000                       # Energy for refresh commands per rank (pJ)
system.mem_ctrls_1.actBackEnergy            909205860                       # Energy for active background per rank (pJ)
system.mem_ctrls_1.preBackEnergy             34360800                       # Energy for precharge background per rank (pJ)
system.mem_ctrls_1.actPowerDownEnergy      4437945900                       # Energy for active power-down per rank (pJ)
system.mem_ctrls_1.prePowerDownEnergy      1221493440                       # Energy for precharge power-down per rank (pJ)
system.mem_ctrls_1.selfRefreshEnergy        105262020                       # Energy for self refresh per rank (pJ)
system.mem_ctrls_1.totalEnergy             8122275750                       # Total energy per rank (pJ)
system.mem_ctrls_1.averagePower            532.003188                       # Core power per rank (mW)
system.mem_ctrls_1.totalIdleTime          13181814250                       # Total Idle time Per DRAM Rank
system.mem_ctrls_1.memoryStateTime::IDLE     30342500                       # Time in different power states
system.mem_ctrls_1.memoryStateTime::REF     518977375                       # Time in different power states
system.mem_ctrls_1.memoryStateTime::SREF    269530750                       # Time in different power states
system.mem_ctrls_1.memoryStateTime::PRE_PDN   3181054500                       # Time in different power states
system.mem_ctrls_1.memoryStateTime::ACT    1535102500                       # Time in different power states
system.mem_ctrls_1.memoryStateTime::ACT_PDN   9732336500                       # Time in different power states
system.pwrStateResidencyTicks::UNDEFINED  15267344125                       # Cumulative time (in ticks) in various power states
system.cpu0.branchPred.lookups               13369574                       # Number of BP lookups
system.cpu0.branchPred.condPredicted         13369574                       # Number of conditional branches predicted
system.cpu0.branchPred.condIncorrect          1395780                       # Number of conditional branches incorrect
system.cpu0.branchPred.BTBLookups            11205888                       # Number of BTB lookups
system.cpu0.branchPred.BTBHits                      0                       # Number of BTB hits
system.cpu0.branchPred.BTBCorrect                   0                       # Number of correct BTB predictions (this stat may not work properly.
system.cpu0.branchPred.BTBHitPct             0.000000                       # BTB Hit Percentage
system.cpu0.branchPred.usedRAS                1092989                       # Number of times the RAS was used to get a target.
system.cpu0.branchPred.RASInCorrect            197537                       # Number of incorrect RAS predictions.
system.cpu0.branchPred.indirectLookups       11205888                       # Number of indirect predictor lookups.
system.cpu0.branchPred.indirectHits           2662820                       # Number of indirect target hits.
system.cpu0.branchPred.indirectMisses         8543068                       # Number of indirect misses.
system.cpu0.branchPredindirectMispredicted       914834                       # Number of mispredicted indirect branches.
system.cpu_voltage_domain.voltage                   1                       # Voltage in Volts
system.cpu_clk_domain.clock                       500                       # Clock period in ticks
system.cpu0.dtb.walker.pwrStateResidencyTicks::UNDEFINED  15267344125                       # Cumulative time (in ticks) in various power states
system.cpu0.dtb.rdAccesses                    7055516                       # TLB accesses on read requests
system.cpu0.dtb.wrAccesses                    2433243                       # TLB accesses on write requests
system.cpu0.dtb.rdMisses                        86895                       # TLB misses on read requests
system.cpu0.dtb.wrMisses                        17948                       # TLB misses on write requests
system.cpu0.apic_clk_domain.clock                8000                       # Clock period in ticks
system.cpu0.interrupts.pwrStateResidencyTicks::UNDEFINED  15267344125                       # Cumulative time (in ticks) in various power states
system.cpu0.itb.walker.pwrStateResidencyTicks::UNDEFINED  15267344125                       # Cumulative time (in ticks) in various power states
system.cpu0.itb.rdAccesses                          0                       # TLB accesses on read requests
system.cpu0.itb.wrAccesses                    6634962                       # TLB accesses on write requests
system.cpu0.itb.rdMisses                            0                       # TLB misses on read requests
system.cpu0.itb.wrMisses                         2418                       # TLB misses on write requests
system.cpu0.workload.numSyscalls                   19                       # Number of system calls
system.cpu0.pwrStateResidencyTicks::ON    15267344125                       # Cumulative time (in ticks) in various power states
system.cpu0.numCycles                        30534689                       # number of cpu cycles simulated
system.cpu0.numWorkItemsStarted                     0                       # number of work items this cpu started
system.cpu0.numWorkItemsCompleted                   0                       # number of work items this cpu completed
system.cpu0.fetch.icacheStallCycles           7540534                       # Number of cycles fetch is stalled on an Icache miss
system.cpu0.fetch.Insts                      57178688                       # Number of instructions fetch has processed
system.cpu0.fetch.Branches                   13369574                       # Number of branches that fetch encountered
system.cpu0.fetch.predictedBranches           3755809                       # Number of branches that fetch has predicted taken
system.cpu0.fetch.Cycles                     21576258                       # Number of cycles fetch has run and was not squashing or blocked
system.cpu0.fetch.SquashCycles                2793640                       # Number of cycles fetch has spent squashing
system.cpu0.fetch.TlbCycles                        11                       # Number of cycles fetch has spent waiting for tlb
system.cpu0.fetch.MiscStallCycles                 859                       # Number of cycles fetch has spent waiting on interrupts, or bad addresses, or out of MSHRs
system.cpu0.fetch.PendingTrapStallCycles        13657                       # Number of stall cycles due to pending traps
system.cpu0.fetch.CacheLines                  6632544                       # Number of cache lines fetched
system.cpu0.fetch.IcacheSquashes               325406                       # Number of outstanding Icache misses that were squashed
system.cpu0.fetch.rateDist::samples          30528139                       # Number of instructions fetched each cycle (Total)
system.cpu0.fetch.rateDist::mean             4.070642                       # Number of instructions fetched each cycle (Total)
system.cpu0.fetch.rateDist::stdev            3.668262                       # Number of instructions fetched each cycle (Total)
system.cpu0.fetch.rateDist::underflows              0      0.00%      0.00% # Number of instructions fetched each cycle (Total)
system.cpu0.fetch.rateDist::0                11955042     39.16%     39.16% # Number of instructions fetched each cycle (Total)
system.cpu0.fetch.rateDist::1                  529049      1.73%     40.89% # Number of instructions fetched each cycle (Total)
system.cpu0.fetch.rateDist::2                  903948      2.96%     43.85% # Number of instructions fetched each cycle (Total)
system.cpu0.fetch.rateDist::3                 1353082      4.43%     48.29% # Number of instructions fetched each cycle (Total)
system.cpu0.fetch.rateDist::4                  617522      2.02%     50.31% # Number of instructions fetched each cycle (Total)
system.cpu0.fetch.rateDist::5                 1150338      3.77%     54.08% # Number of instructions fetched each cycle (Total)
system.cpu0.fetch.rateDist::6                  995156      3.26%     57.34% # Number of instructions fetched each cycle (Total)
system.cpu0.fetch.rateDist::7                  511790      1.68%     59.01% # Number of instructions fetched each cycle (Total)
system.cpu0.fetch.rateDist::8                12512212     40.99%    100.00% # Number of instructions fetched each cycle (Total)
system.cpu0.fetch.rateDist::overflows               0      0.00%    100.00% # Number of instructions fetched each cycle (Total)
system.cpu0.fetch.rateDist::min_value               0                       # Number of instructions fetched each cycle (Total)
system.cpu0.fetch.rateDist::max_value               8                       # Number of instructions fetched each cycle (Total)
system.cpu0.fetch.rateDist::total            30528139                       # Number of instructions fetched each cycle (Total)
system.cpu0.fetch.branchRate                 0.437849                       # Number of branch fetches per cycle
system.cpu0.fetch.rate                       1.872581                       # Number of inst fetches per cycle
system.cpu0.decode.IdleCycles                 5711478                       # Number of cycles decode is idle
system.cpu0.decode.BlockedCycles              8047294                       # Number of cycles decode is blocked
system.cpu0.decode.RunCycles                 13931678                       # Number of cycles decode is running
system.cpu0.decode.UnblockCycles              1440869                       # Number of cycles decode is unblocking
system.cpu0.decode.SquashCycles               1396820                       # Number of cycles decode is squashing
system.cpu0.decode.DecodedInsts             111445579                       # Number of instructions handled by decode
system.cpu0.rename.SquashCycles               1396820                       # Number of cycles rename is squashing
system.cpu0.rename.IdleCycles                 6787017                       # Number of cycles rename is idle
system.cpu0.rename.BlockCycles                6670309                       # Number of cycles rename is blocking
system.cpu0.rename.serializeStallCycles        238762                       # count of cycles rename stalled for serializing inst
system.cpu0.rename.RunCycles                 14084674                       # Number of cycles rename is running
system.cpu0.rename.UnblockCycles              1350557                       # Number of cycles rename is unblocking
system.cpu0.rename.RenamedInsts             104210709                       # Number of instructions processed by rename
system.cpu0.rename.ROBFullEvents                27780                       # Number of times rename has blocked due to ROB full
system.cpu0.rename.IQFullEvents                698044                       # Number of times rename has blocked due to IQ full
system.cpu0.rename.LQFullEvents                   330                       # Number of times rename has blocked due to LQ full
system.cpu0.rename.SQFullEvents                427479                       # Number of times rename has blocked due to SQ full
system.cpu0.rename.RenamedOperands          117068806                       # Number of destination operands rename has renamed
system.cpu0.rename.RenameLookups            258363075                       # Number of register rename lookups that rename has made
system.cpu0.rename.int_rename_lookups       142106100                       # Number of integer rename lookups
system.cpu0.rename.fp_rename_lookups         19323404                       # Number of floating rename lookups
system.cpu0.rename.CommittedMaps             48930934                       # Number of HB maps that are committed
system.cpu0.rename.UndoneMaps                68137763                       # Number of HB maps that are undone due to squashing
system.cpu0.rename.serializingInsts             31920                       # count of serializing insts renamed
system.cpu0.rename.tempSerializingInsts         34367                       # count of temporary serializing insts renamed
system.cpu0.rename.skidInsts                  3190860                       # count of insts added to the skid buffer
system.cpu0.memDep0.insertedLoads             9612543                       # Number of loads inserted to the mem dependence unit.
system.cpu0.memDep0.insertedStores            3379774                       # Number of stores inserted to the mem dependence unit.
system.cpu0.memDep0.conflictingLoads           162079                       # Number of conflicting loads.
system.cpu0.memDep0.conflictingStores          174689                       # Number of conflicting stores.
system.cpu0.iq.iqInstsAdded                  90347081                       # Number of instructions added to the IQ (excludes non-spec)
system.cpu0.iq.iqNonSpecInstsAdded             220248                       # Number of non-speculative instructions added to the IQ
system.cpu0.iq.iqInstsIssued                 71954640                       # Number of instructions issued
system.cpu0.iq.iqSquashedInstsIssued           685265                       # Number of squashed instructions issued
system.cpu0.iq.iqSquashedInstsExamined       48284780                       # Number of squashed instructions iterated over during squash; mainly for profiling
system.cpu0.iq.iqSquashedOperandsExamined     69625896                       # Number of squashed operands that are examined and possibly removed from graph
system.cpu0.iq.iqSquashedNonSpecRemoved        220139                       # Number of squashed non-spec instructions that were removed
system.cpu0.iq.issued_per_cycle::samples     30528139                       # Number of insts issued each cycle
system.cpu0.iq.issued_per_cycle::mean        2.356994                       # Number of insts issued each cycle
system.cpu0.iq.issued_per_cycle::stdev       2.600822                       # Number of insts issued each cycle
system.cpu0.iq.issued_per_cycle::underflows            0      0.00%      0.00% # Number of insts issued each cycle
system.cpu0.iq.issued_per_cycle::0           13136040     43.03%     43.03% # Number of insts issued each cycle
system.cpu0.iq.issued_per_cycle::1            2226358      7.29%     50.32% # Number of insts issued each cycle
system.cpu0.iq.issued_per_cycle::2            2767194      9.06%     59.39% # Number of insts issued each cycle
system.cpu0.iq.issued_per_cycle::3            2337721      7.66%     67.04% # Number of insts issued each cycle
system.cpu0.iq.issued_per_cycle::4            2375114      7.78%     74.82% # Number of insts issued each cycle
system.cpu0.iq.issued_per_cycle::5            2269109      7.43%     82.26% # Number of insts issued each cycle
system.cpu0.iq.issued_per_cycle::6            2670979      8.75%     91.01% # Number of insts issued each cycle
system.cpu0.iq.issued_per_cycle::7            1656136      5.42%     96.43% # Number of insts issued each cycle
system.cpu0.iq.issued_per_cycle::8            1089488      3.57%    100.00% # Number of insts issued each cycle
system.cpu0.iq.issued_per_cycle::overflows            0      0.00%    100.00% # Number of insts issued each cycle
system.cpu0.iq.issued_per_cycle::min_value            0                       # Number of insts issued each cycle
system.cpu0.iq.issued_per_cycle::max_value            8                       # Number of insts issued each cycle
system.cpu0.iq.issued_per_cycle::total       30528139                       # Number of insts issued each cycle
system.cpu0.iq.fu_full::No_OpClass                  0      0.00%      0.00% # attempts to use FU when none available
system.cpu0.iq.fu_full::IntAlu                1464760     92.82%     92.82% # attempts to use FU when none available
system.cpu0.iq.fu_full::IntMult                     0      0.00%     92.82% # attempts to use FU when none available
system.cpu0.iq.fu_full::IntDiv                      0      0.00%     92.82% # attempts to use FU when none available
system.cpu0.iq.fu_full::FloatAdd                83847      5.31%     98.14% # attempts to use FU when none available
system.cpu0.iq.fu_full::FloatCmp                    0      0.00%     98.14% # attempts to use FU when none available
system.cpu0.iq.fu_full::FloatCvt                    0      0.00%     98.14% # attempts to use FU when none available
system.cpu0.iq.fu_full::FloatMult                   0      0.00%     98.14% # attempts to use FU when none available
system.cpu0.iq.fu_full::FloatMultAcc                0      0.00%     98.14% # attempts to use FU when none available
system.cpu0.iq.fu_full::FloatDiv                    0      0.00%     98.14% # attempts to use FU when none available
system.cpu0.iq.fu_full::FloatMisc                   0      0.00%     98.14% # attempts to use FU when none available
system.cpu0.iq.fu_full::FloatSqrt                   0      0.00%     98.14% # attempts to use FU when none available
system.cpu0.iq.fu_full::SimdAdd                     0      0.00%     98.14% # attempts to use FU when none available
system.cpu0.iq.fu_full::SimdAddAcc                  0      0.00%     98.14% # attempts to use FU when none available
system.cpu0.iq.fu_full::SimdAlu                     0      0.00%     98.14% # attempts to use FU when none available
system.cpu0.iq.fu_full::SimdCmp                     0      0.00%     98.14% # attempts to use FU when none available
system.cpu0.iq.fu_full::SimdCvt                     0      0.00%     98.14% # attempts to use FU when none available
system.cpu0.iq.fu_full::SimdMisc                    0      0.00%     98.14% # attempts to use FU when none available
system.cpu0.iq.fu_full::SimdMult                    0      0.00%     98.14% # attempts to use FU when none available
system.cpu0.iq.fu_full::SimdMultAcc                 0      0.00%     98.14% # attempts to use FU when none available
system.cpu0.iq.fu_full::SimdShift                   0      0.00%     98.14% # attempts to use FU when none available
system.cpu0.iq.fu_full::SimdShiftAcc                0      0.00%     98.14% # attempts to use FU when none available
system.cpu0.iq.fu_full::SimdSqrt                    0      0.00%     98.14% # attempts to use FU when none available
system.cpu0.iq.fu_full::SimdFloatAdd                0      0.00%     98.14% # attempts to use FU when none available
system.cpu0.iq.fu_full::SimdFloatAlu                0      0.00%     98.14% # attempts to use FU when none available
system.cpu0.iq.fu_full::SimdFloatCmp                0      0.00%     98.14% # attempts to use FU when none available
system.cpu0.iq.fu_full::SimdFloatCvt                0      0.00%     98.14% # attempts to use FU when none available
system.cpu0.iq.fu_full::SimdFloatDiv                0      0.00%     98.14% # attempts to use FU when none available
system.cpu0.iq.fu_full::SimdFloatMisc               0      0.00%     98.14% # attempts to use FU when none available
system.cpu0.iq.fu_full::SimdFloatMult               0      0.00%     98.14% # attempts to use FU when none available
system.cpu0.iq.fu_full::SimdFloatMultAcc            0      0.00%     98.14% # attempts to use FU when none available
system.cpu0.iq.fu_full::SimdFloatSqrt               0      0.00%     98.14% # attempts to use FU when none available
system.cpu0.iq.fu_full::MemRead                  4261      0.27%     98.41% # attempts to use FU when none available
system.cpu0.iq.fu_full::MemWrite                 2090      0.13%     98.54% # attempts to use FU when none available
system.cpu0.iq.fu_full::FloatMemRead            22670      1.44%     99.98% # attempts to use FU when none available
system.cpu0.iq.fu_full::FloatMemWrite             373      0.02%    100.00% # attempts to use FU when none available
system.cpu0.iq.fu_full::IprAccess                   0      0.00%    100.00% # attempts to use FU when none available
system.cpu0.iq.fu_full::InstPrefetch                0      0.00%    100.00% # attempts to use FU when none available
system.cpu0.iq.FU_type_0::No_OpClass          1832764      2.55%      2.55% # Type of FU issued
system.cpu0.iq.FU_type_0::IntAlu             54713916     76.04%     78.59% # Type of FU issued
system.cpu0.iq.FU_type_0::IntMult                2872      0.00%     78.59% # Type of FU issued
system.cpu0.iq.FU_type_0::IntDiv                78388      0.11%     78.70% # Type of FU issued
system.cpu0.iq.FU_type_0::FloatAdd            4990519      6.94%     85.64% # Type of FU issued
system.cpu0.iq.FU_type_0::FloatCmp                  0      0.00%     85.64% # Type of FU issued
system.cpu0.iq.FU_type_0::FloatCvt                  0      0.00%     85.64% # Type of FU issued
system.cpu0.iq.FU_type_0::FloatMult                 0      0.00%     85.64% # Type of FU issued
system.cpu0.iq.FU_type_0::FloatMultAcc              0      0.00%     85.64% # Type of FU issued
system.cpu0.iq.FU_type_0::FloatDiv                  0      0.00%     85.64% # Type of FU issued
system.cpu0.iq.FU_type_0::FloatMisc                 0      0.00%     85.64% # Type of FU issued
system.cpu0.iq.FU_type_0::FloatSqrt                 0      0.00%     85.64% # Type of FU issued
system.cpu0.iq.FU_type_0::SimdAdd                   0      0.00%     85.64% # Type of FU issued
system.cpu0.iq.FU_type_0::SimdAddAcc                0      0.00%     85.64% # Type of FU issued
system.cpu0.iq.FU_type_0::SimdAlu                   0      0.00%     85.64% # Type of FU issued
system.cpu0.iq.FU_type_0::SimdCmp                   0      0.00%     85.64% # Type of FU issued
system.cpu0.iq.FU_type_0::SimdCvt                   0      0.00%     85.64% # Type of FU issued
system.cpu0.iq.FU_type_0::SimdMisc                  0      0.00%     85.64% # Type of FU issued
system.cpu0.iq.FU_type_0::SimdMult                  0      0.00%     85.64% # Type of FU issued
system.cpu0.iq.FU_type_0::SimdMultAcc               0      0.00%     85.64% # Type of FU issued
system.cpu0.iq.FU_type_0::SimdShift                 0      0.00%     85.64% # Type of FU issued
system.cpu0.iq.FU_type_0::SimdShiftAcc              0      0.00%     85.64% # Type of FU issued
system.cpu0.iq.FU_type_0::SimdSqrt                  0      0.00%     85.64% # Type of FU issued
system.cpu0.iq.FU_type_0::SimdFloatAdd              0      0.00%     85.64% # Type of FU issued
system.cpu0.iq.FU_type_0::SimdFloatAlu              0      0.00%     85.64% # Type of FU issued
system.cpu0.iq.FU_type_0::SimdFloatCmp              0      0.00%     85.64% # Type of FU issued
system.cpu0.iq.FU_type_0::SimdFloatCvt              0      0.00%     85.64% # Type of FU issued
system.cpu0.iq.FU_type_0::SimdFloatDiv              0      0.00%     85.64% # Type of FU issued
system.cpu0.iq.FU_type_0::SimdFloatMisc             0      0.00%     85.64% # Type of FU issued
system.cpu0.iq.FU_type_0::SimdFloatMult             0      0.00%     85.64% # Type of FU issued
system.cpu0.iq.FU_type_0::SimdFloatMultAcc            0      0.00%     85.64% # Type of FU issued
system.cpu0.iq.FU_type_0::SimdFloatSqrt             0      0.00%     85.64% # Type of FU issued
system.cpu0.iq.FU_type_0::MemRead             5269385      7.32%     92.96% # Type of FU issued
system.cpu0.iq.FU_type_0::MemWrite            2646258      3.68%     96.64% # Type of FU issued
system.cpu0.iq.FU_type_0::FloatMemRead        2419404      3.36%    100.00% # Type of FU issued
system.cpu0.iq.FU_type_0::FloatMemWrite          1134      0.00%    100.00% # Type of FU issued
system.cpu0.iq.FU_type_0::IprAccess                 0      0.00%    100.00% # Type of FU issued
system.cpu0.iq.FU_type_0::InstPrefetch              0      0.00%    100.00% # Type of FU issued
system.cpu0.iq.FU_type_0::total              71954640                       # Type of FU issued
system.cpu0.iq.rate                          2.356488                       # Inst issue rate
system.cpu0.iq.fu_busy_cnt                    1578001                       # FU busy when requested
system.cpu0.iq.fu_busy_rate                  0.021930                       # FU busy rate (busy events/executed inst)
system.cpu0.iq.int_inst_queue_reads         161473116                       # Number of integer instruction queue reads
system.cpu0.iq.int_inst_queue_writes        120905511                       # Number of integer instruction queue writes
system.cpu0.iq.int_inst_queue_wakeup_accesses     60881134                       # Number of integer instruction queue wakeup accesses
system.cpu0.iq.fp_inst_queue_reads           15227566                       # Number of floating instruction queue reads
system.cpu0.iq.fp_inst_queue_writes          17946861                       # Number of floating instruction queue writes
system.cpu0.iq.fp_inst_queue_wakeup_accesses      6765364                       # Number of floating instruction queue wakeup accesses
system.cpu0.iq.vec_inst_queue_reads                 0                       # Number of vector instruction queue reads
system.cpu0.iq.vec_inst_queue_writes                0                       # Number of vector instruction queue writes
system.cpu0.iq.vec_inst_queue_wakeup_accesses            0                       # Number of vector instruction queue wakeup accesses
system.cpu0.iq.int_alu_accesses              64078450                       # Number of integer alu accesses
system.cpu0.iq.fp_alu_accesses                7621427                       # Number of floating point alu accesses
system.cpu0.iq.vec_alu_accesses                     0                       # Number of vector alu accesses
system.cpu0.iew.lsq.thread0.forwLoads          220348                       # Number of loads that had data forwarded from stores
system.cpu0.iew.lsq.thread0.invAddrLoads            0                       # Number of loads ignored due to an invalid address
system.cpu0.iew.lsq.thread0.squashedLoads      5821134                       # Number of loads squashed
system.cpu0.iew.lsq.thread0.ignoredResponses         3905                       # Number of memory responses ignored because the instruction is squashed
system.cpu0.iew.lsq.thread0.memOrderViolation          298                       # Number of memory ordering violations
system.cpu0.iew.lsq.thread0.squashedStores      1638663                       # Number of stores squashed
system.cpu0.iew.lsq.thread0.invAddrSwpfs            0                       # Number of software prefetches ignored due to an invalid address
system.cpu0.iew.lsq.thread0.blockedLoads            0                       # Number of blocked loads due to partial load-store forwarding
system.cpu0.iew.lsq.thread0.rescheduledLoads         3546                       # Number of loads that were rescheduled
system.cpu0.iew.lsq.thread0.cacheBlocked           29                       # Number of times an access to memory failed due to the cache being blocked
system.cpu0.iew.iewIdleCycles                       0                       # Number of cycles IEW is idle
system.cpu0.iew.iewSquashCycles               1396820                       # Number of cycles IEW is squashing
system.cpu0.iew.iewBlockCycles                6152051                       # Number of cycles IEW is blocking
system.cpu0.iew.iewUnblockCycles                 6765                       # Number of cycles IEW is unblocking
system.cpu0.iew.iewDispatchedInsts           90567329                       # Number of instructions dispatched to IQ
system.cpu0.iew.iewDispSquashedInsts            51448                       # Number of squashed instructions skipped by dispatch
system.cpu0.iew.iewDispLoadInsts              9612543                       # Number of dispatched load instructions
system.cpu0.iew.iewDispStoreInsts             3379774                       # Number of dispatched store instructions
system.cpu0.iew.iewDispNonSpecInsts             90394                       # Number of dispatched non-speculative instructions
system.cpu0.iew.iewIQFullEvents                  4098                       # Number of times the IQ has become full, causing a stall
system.cpu0.iew.iewLSQFullEvents                 1388                       # Number of times the LSQ has become full, causing a stall
system.cpu0.iew.memOrderViolationEvents           298                       # Number of memory order violations
system.cpu0.iew.predictedTakenIncorrect        422647                       # Number of branches that were predicted taken incorrectly
system.cpu0.iew.predictedNotTakenIncorrect      1332810                       # Number of branches that were predicted not taken incorrectly
system.cpu0.iew.branchMispredicts             1755457                       # Number of branch mispredicts detected at execute
system.cpu0.iew.iewExecutedInsts             68853460                       # Number of executed instructions
system.cpu0.iew.iewExecLoadInsts              7020684                       # Number of load instructions executed
system.cpu0.iew.iewExecSquashedInsts          3101177                       # Number of squashed instructions skipped in execute
system.cpu0.iew.exec_swp                            0                       # number of swp insts executed
system.cpu0.iew.exec_nop                            0                       # number of nop insts executed
system.cpu0.iew.exec_refs                     9453337                       # number of memory reference insts executed
system.cpu0.iew.exec_branches                 6336981                       # Number of branches executed
system.cpu0.iew.exec_stores                   2432653                       # Number of stores executed
system.cpu0.iew.exec_rate                    2.254926                       # Inst execution rate
system.cpu0.iew.wb_sent                      68212718                       # cumulative count of insts sent to commit
system.cpu0.iew.wb_count                     67646498                       # cumulative count of insts written-back
system.cpu0.iew.wb_producers                 50043014                       # num instructions producing a value
system.cpu0.iew.wb_consumers                 88868784                       # num instructions consuming a value
system.cpu0.iew.wb_rate                      2.215398                       # insts written-back per cycle
system.cpu0.iew.wb_fanout                    0.563111                       # average fanout of values written-back
system.cpu0.commit.commitSquashedInsts       48284908                       # The number of squashed insts skipped by commit
system.cpu0.commit.commitNonSpecStalls            109                       # The number of times commit has been forced to stall to communicate backwards
system.cpu0.commit.branchMispredicts          1396652                       # The number of times a branch was mispredicted
system.cpu0.commit.committed_per_cycle::samples     23184099                       # Number of insts commited each cycle
system.cpu0.commit.committed_per_cycle::mean     1.823770                       # Number of insts commited each cycle
system.cpu0.commit.committed_per_cycle::stdev     2.425902                       # Number of insts commited each cycle
system.cpu0.commit.committed_per_cycle::underflows            0      0.00%      0.00% # Number of insts commited each cycle
system.cpu0.commit.committed_per_cycle::0     10552840     45.52%     45.52% # Number of insts commited each cycle
system.cpu0.commit.committed_per_cycle::1      3056432     13.18%     58.70% # Number of insts commited each cycle
system.cpu0.commit.committed_per_cycle::2      3447209     14.87%     73.57% # Number of insts commited each cycle
system.cpu0.commit.committed_per_cycle::3      1890237      8.15%     81.72% # Number of insts commited each cycle
system.cpu0.commit.committed_per_cycle::4       980870      4.23%     85.95% # Number of insts commited each cycle
system.cpu0.commit.committed_per_cycle::5       773563      3.34%     89.29% # Number of insts commited each cycle
system.cpu0.commit.committed_per_cycle::6       331294      1.43%     90.72% # Number of insts commited each cycle
system.cpu0.commit.committed_per_cycle::7       331394      1.43%     92.15% # Number of insts commited each cycle
system.cpu0.commit.committed_per_cycle::8      1820260      7.85%    100.00% # Number of insts commited each cycle
system.cpu0.commit.committed_per_cycle::overflows            0      0.00%    100.00% # Number of insts commited each cycle
system.cpu0.commit.committed_per_cycle::min_value            0                       # Number of insts commited each cycle
system.cpu0.commit.committed_per_cycle::max_value            8                       # Number of insts commited each cycle
system.cpu0.commit.committed_per_cycle::total     23184099                       # Number of insts commited each cycle
system.cpu0.commit.committedInsts            19245633                       # Number of instructions committed
system.cpu0.commit.committedOps              42282458                       # Number of ops (including micro ops) committed
system.cpu0.commit.swp_count                        0                       # Number of s/w prefetches committed
system.cpu0.commit.refs                       5532510                       # Number of memory references committed
system.cpu0.commit.loads                      3791400                       # Number of loads committed
system.cpu0.commit.membars                         60                       # Number of memory barriers committed
system.cpu0.commit.branches                   4418482                       # Number of branches committed
system.cpu0.commit.vec_insts                        0                       # Number of committed Vector instructions.
system.cpu0.commit.fp_insts                   3149675                       # Number of committed floating point instructions.
system.cpu0.commit.int_insts                 39591155                       # Number of committed integer instructions.
system.cpu0.commit.function_calls              382596                       # Number of function calls committed.
system.cpu0.commit.op_class_0::No_OpClass       712199      1.68%      1.68% # Class of committed instruction
system.cpu0.commit.op_class_0::IntAlu        33609978     79.49%     81.17% # Class of committed instruction
system.cpu0.commit.op_class_0::IntMult           1072      0.00%     81.18% # Class of committed instruction
system.cpu0.commit.op_class_0::IntDiv           51035      0.12%     81.30% # Class of committed instruction
system.cpu0.commit.op_class_0::FloatAdd       2375664      5.62%     86.92% # Class of committed instruction
system.cpu0.commit.op_class_0::FloatCmp             0      0.00%     86.92% # Class of committed instruction
system.cpu0.commit.op_class_0::FloatCvt             0      0.00%     86.92% # Class of committed instruction
system.cpu0.commit.op_class_0::FloatMult            0      0.00%     86.92% # Class of committed instruction
system.cpu0.commit.op_class_0::FloatMultAcc            0      0.00%     86.92% # Class of committed instruction
system.cpu0.commit.op_class_0::FloatDiv             0      0.00%     86.92% # Class of committed instruction
system.cpu0.commit.op_class_0::FloatMisc            0      0.00%     86.92% # Class of committed instruction
system.cpu0.commit.op_class_0::FloatSqrt            0      0.00%     86.92% # Class of committed instruction
system.cpu0.commit.op_class_0::SimdAdd              0      0.00%     86.92% # Class of committed instruction
system.cpu0.commit.op_class_0::SimdAddAcc            0      0.00%     86.92% # Class of committed instruction
system.cpu0.commit.op_class_0::SimdAlu              0      0.00%     86.92% # Class of committed instruction
system.cpu0.commit.op_class_0::SimdCmp              0      0.00%     86.92% # Class of committed instruction
system.cpu0.commit.op_class_0::SimdCvt              0      0.00%     86.92% # Class of committed instruction
system.cpu0.commit.op_class_0::SimdMisc             0      0.00%     86.92% # Class of committed instruction
system.cpu0.commit.op_class_0::SimdMult             0      0.00%     86.92% # Class of committed instruction
system.cpu0.commit.op_class_0::SimdMultAcc            0      0.00%     86.92% # Class of committed instruction
system.cpu0.commit.op_class_0::SimdShift            0      0.00%     86.92% # Class of committed instruction
system.cpu0.commit.op_class_0::SimdShiftAcc            0      0.00%     86.92% # Class of committed instruction
system.cpu0.commit.op_class_0::SimdSqrt             0      0.00%     86.92% # Class of committed instruction
system.cpu0.commit.op_class_0::SimdFloatAdd            0      0.00%     86.92% # Class of committed instruction
system.cpu0.commit.op_class_0::SimdFloatAlu            0      0.00%     86.92% # Class of committed instruction
system.cpu0.commit.op_class_0::SimdFloatCmp            0      0.00%     86.92% # Class of committed instruction
system.cpu0.commit.op_class_0::SimdFloatCvt            0      0.00%     86.92% # Class of committed instruction
system.cpu0.commit.op_class_0::SimdFloatDiv            0      0.00%     86.92% # Class of committed instruction
system.cpu0.commit.op_class_0::SimdFloatMisc            0      0.00%     86.92% # Class of committed instruction
system.cpu0.commit.op_class_0::SimdFloatMult            0      0.00%     86.92% # Class of committed instruction
system.cpu0.commit.op_class_0::SimdFloatMultAcc            0      0.00%     86.92% # Class of committed instruction
system.cpu0.commit.op_class_0::SimdFloatSqrt            0      0.00%     86.92% # Class of committed instruction
system.cpu0.commit.op_class_0::MemRead        3029154      7.16%     94.08% # Class of committed instruction
system.cpu0.commit.op_class_0::MemWrite       1741110      4.12%     98.20% # Class of committed instruction
system.cpu0.commit.op_class_0::FloatMemRead       762246      1.80%    100.00% # Class of committed instruction
system.cpu0.commit.op_class_0::FloatMemWrite            0      0.00%    100.00% # Class of committed instruction
system.cpu0.commit.op_class_0::IprAccess            0      0.00%    100.00% # Class of committed instruction
system.cpu0.commit.op_class_0::InstPrefetch            0      0.00%    100.00% # Class of committed instruction
system.cpu0.commit.op_class_0::total         42282458                       # Class of committed instruction
system.cpu0.commit.bw_lim_events              1820260                       # number cycles where commit BW limit reached
system.cpu0.rob.rob_reads                   111931205                       # The number of ROB reads
system.cpu0.rob.rob_writes                  188617582                       # The number of ROB writes
system.cpu0.timesIdled                           1570                       # Number of times that the entire CPU went into an idle state and unscheduled itself
system.cpu0.idleCycles                           6550                       # Total number of cycles that the CPU has spent unscheduled due to idling
system.cpu0.committedInsts                   19245633                       # Number of Instructions Simulated
system.cpu0.committedOps                     42282458                       # Number of Ops (including micro ops) Simulated
system.cpu0.cpi                              1.586578                       # CPI: Cycles Per Instruction
system.cpu0.cpi_total                        1.586578                       # CPI: Total CPI of All Threads
system.cpu0.ipc                              0.630288                       # IPC: Instructions Per Cycle
system.cpu0.ipc_total                        0.630288                       # IPC: Total IPC of All Threads
system.cpu0.int_regfile_reads                88260594                       # number of integer regfile reads
system.cpu0.int_regfile_writes               52022613                       # number of integer regfile writes
system.cpu0.fp_regfile_reads                 10702506                       # number of floating regfile reads
system.cpu0.fp_regfile_writes                 6369598                       # number of floating regfile writes
system.cpu0.cc_regfile_reads                 36595753                       # number of cc regfile reads
system.cpu0.cc_regfile_writes                18156848                       # number of cc regfile writes
system.cpu0.misc_regfile_reads               22422310                       # number of misc regfile reads
system.cpu0.dcache.tags.pwrStateResidencyTicks::UNDEFINED  15267344125                       # Cumulative time (in ticks) in various power states
system.cpu0.dcache.tags.replacements            21833                       # number of replacements
system.cpu0.dcache.tags.tagsinuse                 512                       # Cycle average of tags in use
system.cpu0.dcache.tags.total_refs             532001                       # Total number of references to valid blocks.
system.cpu0.dcache.tags.sampled_refs            21833                       # Sample count of references to valid blocks.
system.cpu0.dcache.tags.avg_refs            24.366830                       # Average number of references to valid blocks.
system.cpu0.dcache.tags.warmup_cycle                0                       # Cycle when the warmup percentage was hit.
system.cpu0.dcache.tags.occ_blocks::cpu0.data          512                       # Average occupied blocks per requestor
system.cpu0.dcache.tags.occ_percent::cpu0.data            1                       # Average percentage of cache occupancy
system.cpu0.dcache.tags.occ_percent::total            1                       # Average percentage of cache occupancy
system.cpu0.dcache.tags.occ_task_id_blocks::1024          512                       # Occupied blocks per task id
system.cpu0.dcache.tags.age_task_id_blocks_1024::0           14                       # Occupied blocks per task id
system.cpu0.dcache.tags.age_task_id_blocks_1024::1          128                       # Occupied blocks per task id
system.cpu0.dcache.tags.age_task_id_blocks_1024::2          312                       # Occupied blocks per task id
system.cpu0.dcache.tags.age_task_id_blocks_1024::3            5                       # Occupied blocks per task id
system.cpu0.dcache.tags.age_task_id_blocks_1024::4           53                       # Occupied blocks per task id
system.cpu0.dcache.tags.occ_task_id_percent::1024            1                       # Percentage of cache occupancy per task id
system.cpu0.dcache.tags.tag_accesses         33992753                       # Number of tag accesses
system.cpu0.dcache.tags.data_accesses        33992753                       # Number of data accesses
system.cpu0.dcache.pwrStateResidencyTicks::UNDEFINED  15267344125                       # Cumulative time (in ticks) in various power states
system.cpu0.dcache.ReadReq_hits::cpu0.data      6723461                       # number of ReadReq hits
system.cpu0.dcache.ReadReq_hits::total        6723461                       # number of ReadReq hits
system.cpu0.dcache.WriteReq_hits::cpu0.data      1730472                       # number of WriteReq hits
system.cpu0.dcache.WriteReq_hits::total       1730472                       # number of WriteReq hits
system.cpu0.dcache.demand_hits::cpu0.data      8453933                       # number of demand (read+write) hits
system.cpu0.dcache.demand_hits::total         8453933                       # number of demand (read+write) hits
system.cpu0.dcache.overall_hits::cpu0.data      8453933                       # number of overall hits
system.cpu0.dcache.overall_hits::total        8453933                       # number of overall hits
system.cpu0.dcache.ReadReq_misses::cpu0.data        27995                       # number of ReadReq misses
system.cpu0.dcache.ReadReq_misses::total        27995                       # number of ReadReq misses
system.cpu0.dcache.WriteReq_misses::cpu0.data        10802                       # number of WriteReq misses
system.cpu0.dcache.WriteReq_misses::total        10802                       # number of WriteReq misses
system.cpu0.dcache.demand_misses::cpu0.data        38797                       # number of demand (read+write) misses
system.cpu0.dcache.demand_misses::total         38797                       # number of demand (read+write) misses
system.cpu0.dcache.overall_misses::cpu0.data        38797                       # number of overall misses
system.cpu0.dcache.overall_misses::total        38797                       # number of overall misses
system.cpu0.dcache.ReadReq_miss_latency::cpu0.data   1199127500                       # number of ReadReq miss cycles
system.cpu0.dcache.ReadReq_miss_latency::total   1199127500                       # number of ReadReq miss cycles
system.cpu0.dcache.WriteReq_miss_latency::cpu0.data    983206000                       # number of WriteReq miss cycles
system.cpu0.dcache.WriteReq_miss_latency::total    983206000                       # number of WriteReq miss cycles
system.cpu0.dcache.demand_miss_latency::cpu0.data   2182333500                       # number of demand (read+write) miss cycles
system.cpu0.dcache.demand_miss_latency::total   2182333500                       # number of demand (read+write) miss cycles
system.cpu0.dcache.overall_miss_latency::cpu0.data   2182333500                       # number of overall miss cycles
system.cpu0.dcache.overall_miss_latency::total   2182333500                       # number of overall miss cycles
system.cpu0.dcache.ReadReq_accesses::cpu0.data      6751456                       # number of ReadReq accesses(hits+misses)
system.cpu0.dcache.ReadReq_accesses::total      6751456                       # number of ReadReq accesses(hits+misses)
system.cpu0.dcache.WriteReq_accesses::cpu0.data      1741274                       # number of WriteReq accesses(hits+misses)
system.cpu0.dcache.WriteReq_accesses::total      1741274                       # number of WriteReq accesses(hits+misses)
system.cpu0.dcache.demand_accesses::cpu0.data      8492730                       # number of demand (read+write) accesses
system.cpu0.dcache.demand_accesses::total      8492730                       # number of demand (read+write) accesses
system.cpu0.dcache.overall_accesses::cpu0.data      8492730                       # number of overall (read+write) accesses
system.cpu0.dcache.overall_accesses::total      8492730                       # number of overall (read+write) accesses
[...]
system.l2.overall_miss_rate::cpu0.inst       0.000185                       # miss rate for overall accesses
system.l2.overall_miss_rate::cpu0.data       0.652803                       # miss rate for overall accesses
system.l2.overall_miss_rate::total           0.523219                       # miss rate for overall accesses
system.l2.ReadExReq_avg_miss_latency::cpu0.data 92812.854637                       # average ReadExReq miss latency
system.l2.ReadExReq_avg_miss_latency::total 92812.854637                       # average ReadExReq miss latency
system.l2.ReadCleanReq_avg_miss_latency::cpu0.inst       104000                       # average ReadCleanReq miss latency
system.l2.ReadCleanReq_avg_miss_latency::total       104000                       # average ReadCleanReq miss latency
system.l2.ReadSharedReq_avg_miss_latency::cpu0.data 108987.606931                       # average ReadSharedReq miss latency
system.l2.ReadSharedReq_avg_miss_latency::total 108987.606931                       # average ReadSharedReq miss latency
system.l2.demand_avg_miss_latency::cpu0.inst       104000                       # average overall miss latency
system.l2.demand_avg_miss_latency::cpu0.data 97986.914117                       # average overall miss latency
system.l2.demand_avg_miss_latency::total 97987.335999                       # average overall miss latency
system.l2.overall_avg_miss_latency::cpu0.inst       104000                       # average overall miss latency
system.l2.overall_avg_miss_latency::cpu0.data 97986.914117                       # average overall miss latency
system.l2.overall_avg_miss_latency::total 97987.335999                       # average overall miss latency
system.l2.blocked_cycles::no_mshrs                  0                       # number of cycles access was blocked
system.l2.blocked_cycles::no_targets                0                       # number of cycles access was blocked
system.l2.blocked::no_mshrs                         0                       # number of cycles access was blocked
system.l2.blocked::no_targets                       0                       # number of cycles access was blocked
system.l2.avg_blocked_cycles::no_mshrs            nan                       # average number of cycles each access was blocked
system.l2.avg_blocked_cycles::no_targets          nan                       # average number of cycles each access was blocked
system.l2.writebacks::writebacks                13601                       # number of writebacks
system.l2.writebacks::total                     13601                       # number of writebacks
system.l2.ReadExReq_mshr_misses::cpu0.data         9693                       # number of ReadExReq MSHR misses
system.l2.ReadExReq_mshr_misses::total           9693                       # number of ReadExReq MSHR misses
system.l2.ReadCleanReq_mshr_misses::cpu0.inst            1                       # number of ReadCleanReq MSHR misses
system.l2.ReadCleanReq_mshr_misses::total            1                       # number of ReadCleanReq MSHR misses
system.l2.ReadSharedReq_mshr_misses::cpu0.data         4559                       # number of ReadSharedReq MSHR misses
system.l2.ReadSharedReq_mshr_misses::total         4559                       # number of ReadSharedReq MSHR misses
system.l2.demand_mshr_misses::cpu0.inst             1                       # number of demand (read+write) MSHR misses
system.l2.demand_mshr_misses::cpu0.data         14252                       # number of demand (read+write) MSHR misses
system.l2.demand_mshr_misses::total             14253                       # number of demand (read+write) MSHR misses
system.l2.overall_mshr_misses::cpu0.inst            1                       # number of overall MSHR misses
system.l2.overall_mshr_misses::cpu0.data        14252                       # number of overall MSHR misses
system.l2.overall_mshr_misses::total            14253                       # number of overall MSHR misses
system.l2.ReadExReq_mshr_miss_latency::cpu0.data    802695000                       # number of ReadExReq MSHR miss cycles
system.l2.ReadExReq_mshr_miss_latency::total    802695000                       # number of ReadExReq MSHR miss cycles
system.l2.ReadCleanReq_mshr_miss_latency::cpu0.inst        94000                       # number of ReadCleanReq MSHR miss cycles
system.l2.ReadCleanReq_mshr_miss_latency::total        94000                       # number of ReadCleanReq MSHR miss cycles
system.l2.ReadSharedReq_mshr_miss_latency::cpu0.data    451284500                       # number of ReadSharedReq MSHR miss cycles
system.l2.ReadSharedReq_mshr_miss_latency::total    451284500                       # number of ReadSharedReq MSHR miss cycles
system.l2.demand_mshr_miss_latency::cpu0.inst        94000                       # number of demand (read+write) MSHR miss cycles
system.l2.demand_mshr_miss_latency::cpu0.data   1253979500                       # number of demand (read+write) MSHR miss cycles
system.l2.demand_mshr_miss_latency::total   1254073500                       # number of demand (read+write) MSHR miss cycles
system.l2.overall_mshr_miss_latency::cpu0.inst        94000                       # number of overall MSHR miss cycles
system.l2.overall_mshr_miss_latency::cpu0.data   1253979500                       # number of overall MSHR miss cycles
system.l2.overall_mshr_miss_latency::total   1254073500                       # number of overall MSHR miss cycles
system.l2.ReadExReq_mshr_miss_rate::cpu0.data     0.953285                       # mshr miss rate for ReadExReq accesses
system.l2.ReadExReq_mshr_miss_rate::total     0.953285                       # mshr miss rate for ReadExReq accesses
system.l2.ReadCleanReq_mshr_miss_rate::cpu0.inst     0.000185                       # mshr miss rate for ReadCleanReq accesses
system.l2.ReadCleanReq_mshr_miss_rate::total     0.000185                       # mshr miss rate for ReadCleanReq accesses
system.l2.ReadSharedReq_mshr_miss_rate::cpu0.data     0.390861                       # mshr miss rate for ReadSharedReq accesses
system.l2.ReadSharedReq_mshr_miss_rate::total     0.390861                       # mshr miss rate for ReadSharedReq accesses
system.l2.demand_mshr_miss_rate::cpu0.inst     0.000185                       # mshr miss rate for demand accesses
system.l2.demand_mshr_miss_rate::cpu0.data     0.652803                       # mshr miss rate for demand accesses
system.l2.demand_mshr_miss_rate::total       0.523219                       # mshr miss rate for demand accesses
system.l2.overall_mshr_miss_rate::cpu0.inst     0.000185                       # mshr miss rate for overall accesses
system.l2.overall_mshr_miss_rate::cpu0.data     0.652803                       # mshr miss rate for overall accesses
system.l2.overall_mshr_miss_rate::total      0.523219                       # mshr miss rate for overall accesses
system.l2.ReadExReq_avg_mshr_miss_latency::cpu0.data 82811.822965                       # average ReadExReq mshr miss latency
system.l2.ReadExReq_avg_mshr_miss_latency::total 82811.822965                       # average ReadExReq mshr miss latency
system.l2.ReadCleanReq_avg_mshr_miss_latency::cpu0.inst        94000                       # average ReadCleanReq mshr miss latency
system.l2.ReadCleanReq_avg_mshr_miss_latency::total        94000                       # average ReadCleanReq mshr miss latency
system.l2.ReadSharedReq_avg_mshr_miss_latency::cpu0.data 98987.606931                       # average ReadSharedReq mshr miss latency
system.l2.ReadSharedReq_avg_mshr_miss_latency::total 98987.606931                       # average ReadSharedReq mshr miss latency
system.l2.demand_avg_mshr_miss_latency::cpu0.inst        94000                       # average overall mshr miss latency
system.l2.demand_avg_mshr_miss_latency::cpu0.data 87986.212461                       # average overall mshr miss latency
system.l2.demand_avg_mshr_miss_latency::total 87986.634393                       # average overall mshr miss latency
system.l2.overall_avg_mshr_miss_latency::cpu0.inst        94000                       # average overall mshr miss latency
system.l2.overall_avg_mshr_miss_latency::cpu0.data 87986.212461                       # average overall mshr miss latency
system.l2.overall_avg_mshr_miss_latency::total 87986.634393                       # average overall mshr miss latency
system.membus.snoop_filter.tot_requests         28402                       # Total number of requests made to the snoop filter.
system.membus.snoop_filter.hit_single_requests        14149                       # Number of requests hitting in the snoop filter with a single holder of the requested data.
system.membus.snoop_filter.hit_multi_requests            0                       # Number of requests hitting in the snoop filter with multiple (>1) holders of the requested data.
system.membus.snoop_filter.tot_snoops               0                       # Total number of snoops made to the snoop filter.
system.membus.snoop_filter.hit_single_snoops            0                       # Number of snoops hitting in the snoop filter with a single holder of the requested data.
system.membus.snoop_filter.hit_multi_snoops            0                       # Number of snoops hitting in the snoop filter with multiple (>1) holders of the requested data.
system.membus.pwrStateResidencyTicks::UNDEFINED  15267344125                       # Cumulative time (in ticks) in various power states
system.membus.trans_dist::ReadResp               4560                       # Transaction distribution
system.membus.trans_dist::WritebackDirty        13601                       # Transaction distribution
system.membus.trans_dist::CleanEvict              548                       # Transaction distribution
system.membus.trans_dist::ReadExReq              9693                       # Transaction distribution
system.membus.trans_dist::ReadExResp             9694                       # Transaction distribution
system.membus.trans_dist::ReadSharedReq          4560                       # Transaction distribution
system.membus.pkt_count_system.l2.mem_side::system.mem_ctrls.port        42656                       # Packet count per connected master and slave (bytes)
system.membus.pkt_count_system.l2.mem_side::total        42656                       # Packet count per connected master and slave (bytes)
system.membus.pkt_count::total                  42656                       # Packet count per connected master and slave (bytes)
system.membus.pkt_size_system.l2.mem_side::system.mem_ctrls.port      1782720                       # Cumulative packet size per connected master and slave (bytes)
system.membus.pkt_size_system.l2.mem_side::total      1782720                       # Cumulative packet size per connected master and slave (bytes)
system.membus.pkt_size::total                 1782720                       # Cumulative packet size per connected master and slave (bytes)
system.membus.snoops                                0                       # Total snoops (count)
system.membus.snoopTraffic                          0                       # Total snoop traffic (bytes)
system.membus.snoop_fanout::samples             14253                       # Request fanout histogram
system.membus.snoop_fanout::mean                    0                       # Request fanout histogram
system.membus.snoop_fanout::stdev                   0                       # Request fanout histogram
system.membus.snoop_fanout::underflows              0      0.00%      0.00% # Request fanout histogram
system.membus.snoop_fanout::0                   14253    100.00%    100.00% # Request fanout histogram
system.membus.snoop_fanout::1                       0      0.00%    100.00% # Request fanout histogram
system.membus.snoop_fanout::overflows               0      0.00%    100.00% # Request fanout histogram
system.membus.snoop_fanout::min_value               0                       # Request fanout histogram
system.membus.snoop_fanout::max_value               0                       # Request fanout histogram
system.membus.snoop_fanout::total               14253                       # Request fanout histogram
system.membus.reqLayer12.occupancy           86200500                       # Layer occupancy (ticks)
system.membus.reqLayer12.utilization              0.6                       # Layer utilization (%)
system.membus.respLayer1.occupancy           77253000                       # Layer occupancy (ticks)
system.membus.respLayer1.utilization              0.5                       # Layer utilization (%)
system.tol2bus.snoop_filter.tot_requests        54550                       # Total number of requests made to the snoop filter.
system.tol2bus.snoop_filter.hit_single_requests        27261                       # Number of requests hitting in the snoop filter with a single holder of the requested data.
system.tol2bus.snoop_filter.hit_multi_requests           89                       # Number of requests hitting in the snoop filter with multiple (>1) holders of the requested data.
system.tol2bus.snoop_filter.tot_snoops            105                       # Total number of snoops made to the snoop filter.
system.tol2bus.snoop_filter.hit_single_snoops          105                       # Number of snoops hitting in the snoop filter with a single holder of the requested data.
system.tol2bus.snoop_filter.hit_multi_snoops            0                       # Number of snoops hitting in the snoop filter with multiple (>1) holders of the requested data.
system.tol2bus.pwrStateResidencyTicks::UNDEFINED  15267344125                       # Cumulative time (in ticks) in various power states
system.tol2bus.trans_dist::ReadResp             17104                       # Transaction distribution
system.tol2bus.trans_dist::WritebackDirty        32826                       # Transaction distribution
system.tol2bus.trans_dist::WritebackClean         5423                       # Transaction distribution
system.tol2bus.trans_dist::CleanEvict            3261                       # Transaction distribution
system.tol2bus.trans_dist::UpgradeReq              22                       # Transaction distribution
system.tol2bus.trans_dist::UpgradeResp             22                       # Transaction distribution
system.tol2bus.trans_dist::ReadExReq            10168                       # Transaction distribution
system.tol2bus.trans_dist::ReadExResp           10169                       # Transaction distribution
system.tol2bus.trans_dist::ReadCleanReq          5440                       # Transaction distribution
system.tol2bus.trans_dist::ReadSharedReq        11664                       # Transaction distribution
system.tol2bus.pkt_count_system.cpu0.icache.mem_side::system.l2.cpu_side        16272                       # Packet count per connected master and slave (bytes)
system.tol2bus.pkt_count_system.cpu0.dcache.mem_side::system.l2.cpu_side        65542                       # Packet count per connected master and slave (bytes)
system.tol2bus.pkt_count::total                 81814                       # Packet count per connected master and slave (bytes)
system.tol2bus.pkt_size_system.cpu0.icache.mem_side::system.l2.cpu_side       693248                       # Cumulative packet size per connected master and slave (bytes)
system.tol2bus.pkt_size_system.cpu0.dcache.mem_side::system.l2.cpu_side      2627712                       # Cumulative packet size per connected master and slave (bytes)
system.tol2bus.pkt_size::total                3320960                       # Cumulative packet size per connected master and slave (bytes)
system.tol2bus.snoops                           14285                       # Total snoops (count)
system.tol2bus.snoopTraffic                    872448                       # Total snoop traffic (bytes)
system.tol2bus.snoop_fanout::samples            41548                       # Request fanout histogram
system.tol2bus.snoop_fanout::mean            0.004669                       # Request fanout histogram
system.tol2bus.snoop_fanout::stdev           0.068173                       # Request fanout histogram
system.tol2bus.snoop_fanout::underflows             0      0.00%      0.00% # Request fanout histogram
system.tol2bus.snoop_fanout::0                  41354     99.53%     99.53% # Request fanout histogram
system.tol2bus.snoop_fanout::1                    194      0.47%    100.00% # Request fanout histogram
system.tol2bus.snoop_fanout::2                      0      0.00%    100.00% # Request fanout histogram
system.tol2bus.snoop_fanout::3                      0      0.00%    100.00% # Request fanout histogram
system.tol2bus.snoop_fanout::4                      0      0.00%    100.00% # Request fanout histogram
system.tol2bus.snoop_fanout::5                      0      0.00%    100.00% # Request fanout histogram
system.tol2bus.snoop_fanout::6                      0      0.00%    100.00% # Request fanout histogram
system.tol2bus.snoop_fanout::7                      0      0.00%    100.00% # Request fanout histogram
system.tol2bus.snoop_fanout::8                      0      0.00%    100.00% # Request fanout histogram
system.tol2bus.snoop_fanout::9                      0      0.00%    100.00% # Request fanout histogram
system.tol2bus.snoop_fanout::10                     0      0.00%    100.00% # Request fanout histogram
system.tol2bus.snoop_fanout::11                     0      0.00%    100.00% # Request fanout histogram
system.tol2bus.snoop_fanout::12                     0      0.00%    100.00% # Request fanout histogram
system.tol2bus.snoop_fanout::13                     0      0.00%    100.00% # Request fanout histogram
system.tol2bus.snoop_fanout::14                     0      0.00%    100.00% # Request fanout histogram
system.tol2bus.snoop_fanout::15                     0      0.00%    100.00% # Request fanout histogram
system.tol2bus.snoop_fanout::16                     0      0.00%    100.00% # Request fanout histogram
system.tol2bus.snoop_fanout::17                     0      0.00%    100.00% # Request fanout histogram
system.tol2bus.snoop_fanout::18                     0      0.00%    100.00% # Request fanout histogram
system.tol2bus.snoop_fanout::19                     0      0.00%    100.00% # Request fanout histogram
system.tol2bus.snoop_fanout::20                     0      0.00%    100.00% # Request fanout histogram
system.tol2bus.snoop_fanout::21                     0      0.00%    100.00% # Request fanout histogram
system.tol2bus.snoop_fanout::22                     0      0.00%    100.00% # Request fanout histogram
system.tol2bus.snoop_fanout::23                     0      0.00%    100.00% # Request fanout histogram
system.tol2bus.snoop_fanout::24                     0      0.00%    100.00% # Request fanout histogram
system.tol2bus.snoop_fanout::overflows              0      0.00%    100.00% # Request fanout histogram
system.tol2bus.snoop_fanout::min_value              0                       # Request fanout histogram
system.tol2bus.snoop_fanout::max_value              1                       # Request fanout histogram
system.tol2bus.snoop_fanout::total              41548                       # Request fanout histogram
system.tol2bus.reqLayer0.occupancy           51923000                       # Layer occupancy (ticks)
system.tol2bus.reqLayer0.utilization              0.3                       # Layer utilization (%)
system.tol2bus.respLayer0.occupancy           8160499                       # Layer occupancy (ticks)
system.tol2bus.respLayer0.utilization             0.1                       # Layer utilization (%)
system.tol2bus.respLayer1.occupancy          32761498                       # Layer occupancy (ticks)
system.tol2bus.respLayer1.utilization             0.2                       # Layer utilization (%)

---------- End Simulation Statistics   ----------
