
---------- Begin Simulation Statistics ----------
sim_seconds                                  0.015267                       # Number of seconds simulated
sim_ticks                                 15267344125                       # Number of ticks simulated
final_tick                               3832103375375                       # Number of ticks from beginning of simulation (restored from checkpoints and never reset)
sim_freq                                 1000000000000                       # Frequency of simulated ticks
host_inst_rate                               73139068                       # Simulator instruction rate (inst/s)
host_op_rate                                136186826                       # Simulator op (including micro ops) rate (op/s)
host_tick_rate                              187643473                       # Simulator tick rate (ticks/s)
host_mem_usage                                3428856                       # Number of bytes of host memory used
host_seconds                                    81.36                       # Real time elapsed on the host
sim_insts                                  5950854860                       # Number of instructions simulated
sim_ops                                   11080646146                       # Number of ops (including micro ops) simulated
system.voltage_domain.voltage                       1                       # Voltage in Volts
system.clk_domain.clock                          1000                       # Clock period in ticks
system.mem_ctrls.pwrStateResidencyTicks::UNDEFINED  15267344125                       # Cumulative time (in ticks) in various power states
system.mem_ctrls.bytes_read::cpu0.inst            384                       # Number of bytes read from this memory
system.mem_ctrls.bytes_read::cpu0.data        5510592                       # Number of bytes read from this memory
system.mem_ctrls.bytes_read::total            5510976                       # Number of bytes read from this memory
system.mem_ctrls.bytes_inst_read::cpu0.inst          384                       # Number of instructions bytes read from this memory
system.mem_ctrls.bytes_inst_read::total           384                       # Number of instructions bytes read from this memory
system.mem_ctrls.bytes_written::writebacks       150400                       # Number of bytes written to this memory
system.mem_ctrls.bytes_written::total          150400                       # Number of bytes written to this memory
system.mem_ctrls.num_reads::cpu0.inst               6                       # Number of read requests responded to by this memory
system.mem_ctrls.num_reads::cpu0.data           86103                       # Number of read requests responded to by this memory
system.mem_ctrls.num_reads::total               86109                       # Number of read requests responded to by this memory
system.mem_ctrls.num_writes::writebacks          2350                       # Number of write requests responded to by this memory
system.mem_ctrls.num_writes::total               2350                       # Number of write requests responded to by this memory
system.mem_ctrls.bw_read::cpu0.inst             25152                       # Total read bandwidth from this memory (bytes/s)
system.mem_ctrls.bw_read::cpu0.data         360939791                       # Total read bandwidth from this memory (bytes/s)
system.mem_ctrls.bw_read::total             360964943                       # Total read bandwidth from this memory (bytes/s)
system.mem_ctrls.bw_inst_read::cpu0.inst        25152                       # Instruction read bandwidth from this memory (bytes/s)
system.mem_ctrls.bw_inst_read::total            25152                       # Instruction read bandwidth from this memory (bytes/s)
system.mem_ctrls.bw_write::writebacks         9851091                       # Write bandwidth from this memory (bytes/s)
system.mem_ctrls.bw_write::total              9851091                       # Write bandwidth from this memory (bytes/s)
system.mem_ctrls.bw_total::writebacks         9851091                       # Total bandwidth to/from this memory (bytes/s)
system.mem_ctrls.bw_total::cpu0.inst            25152                       # Total bandwidth to/from this memory (bytes/s)
system.mem_ctrls.bw_total::cpu0.data        360939791                       # Total bandwidth to/from this memory (bytes/s)
system.mem_ctrls.bw_total::total            370816034                       # Total bandwidth to/from this memory (bytes/s)
system.mem_ctrls.readReqs                       86109                       # Number of read requests accepted
system.mem_ctrls.writeReqs                       2350                       # Number of write requests accepted
system.mem_ctrls.readBursts                     86109                       # Number of DRAM read bursts, including those serviced by the write queue
system.mem_ctrls.writeBursts                     2350                       # Number of DRAM write bursts, including those merged in the write queue
system.mem_ctrls.bytesReadDRAM                5501824                       # Total number of bytes read from DRAM
system.mem_ctrls.bytesReadWrQ                    9152                       # Total number of bytes read from write queue
system.mem_ctrls.bytesWritten                  150144                       # Total number of bytes written to DRAM
system.mem_ctrls.bytesReadSys                 5510976                       # Total read bytes from the system interface side
system.mem_ctrls.bytesWrittenSys               150400                       # Total written bytes from the system interface side
system.mem_ctrls.servicedByWrQ                    143                       # Number of DRAM read bursts serviced by the write queue
system.mem_ctrls.mergedWrBursts                     0                       # Number of DRAM write bursts merged with an existing one
system.mem_ctrls.neitherReadNorWriteReqs            0                       # Number of requests that are neither read nor write
system.mem_ctrls.perBankRdBursts::0              4797                       # Per bank write bursts
system.mem_ctrls.perBankRdBursts::1              4999                       # Per bank write bursts
system.mem_ctrls.perBankRdBursts::2              5151                       # Per bank write bursts
system.mem_ctrls.perBankRdBursts::3              6108                       # Per bank write bursts
system.mem_ctrls.perBankRdBursts::4              6430                       # Per bank write bursts
system.mem_ctrls.perBankRdBursts::5              5898                       # Per bank write bursts
system.mem_ctrls.perBankRdBursts::6              6208                       # Per bank write bursts
system.mem_ctrls.perBankRdBursts::7              5245                       # Per bank write bursts
system.mem_ctrls.perBankRdBursts::8              5224                       # Per bank write bursts
system.mem_ctrls.perBankRdBursts::9              5001                       # Per bank write bursts
system.mem_ctrls.perBankRdBursts::10             5042                       # Per bank write bursts
system.mem_ctrls.perBankRdBursts::11             5220                       # Per bank write bursts
system.mem_ctrls.perBankRdBursts::12             5257                       # Per bank write bursts
system.mem_ctrls.perBankRdBursts::13             5379                       # Per bank write bursts
system.mem_ctrls.perBankRdBursts::14             4989                       # Per bank write bursts
system.mem_ctrls.perBankRdBursts::15             5018                       # Per bank write bursts
system.mem_ctrls.perBankWrBursts::0               114                       # Per bank write bursts
system.mem_ctrls.perBankWrBursts::1               239                       # Per bank write bursts
system.mem_ctrls.perBankWrBursts::2               222                       # Per bank write bursts
system.mem_ctrls.perBankWrBursts::3               162                       # Per bank write bursts
system.mem_ctrls.perBankWrBursts::4               105                       # Per bank write bursts
system.mem_ctrls.perBankWrBursts::5                97                       # Per bank write bursts
system.mem_ctrls.perBankWrBursts::6               140                       # Per bank write bursts
system.mem_ctrls.perBankWrBursts::7               285                       # Per bank write bursts
system.mem_ctrls.perBankWrBursts::8               240                       # Per bank write bursts
system.mem_ctrls.perBankWrBursts::9               118                       # Per bank write bursts
system.mem_ctrls.perBankWrBursts::10               56                       # Per bank write bursts
system.mem_ctrls.perBankWrBursts::11              131                       # Per bank write bursts
system.mem_ctrls.perBankWrBursts::12              116                       # Per bank write bursts
system.mem_ctrls.perBankWrBursts::13               76                       # Per bank write bursts
system.mem_ctrls.perBankWrBursts::14              128                       # Per bank write bursts
system.mem_ctrls.perBankWrBursts::15              117                       # Per bank write bursts
system.mem_ctrls.numRdRetry                         0                       # Number of times read queue was full causing retry
system.mem_ctrls.numWrRetry                         0                       # Number of times write queue was full causing retry
system.mem_ctrls.totGap                   15267212000                       # Total gap between requests
system.mem_ctrls.readPktSize::0                     0                       # Read request sizes (log2)
system.mem_ctrls.readPktSize::1                     0                       # Read request sizes (log2)
system.mem_ctrls.readPktSize::2                     0                       # Read request sizes (log2)
system.mem_ctrls.readPktSize::3                     0                       # Read request sizes (log2)
system.mem_ctrls.readPktSize::4                     0                       # Read request sizes (log2)
system.mem_ctrls.readPktSize::5                     0                       # Read request sizes (log2)
system.mem_ctrls.readPktSize::6                 86109                       # Read request sizes (log2)
system.mem_ctrls.writePktSize::0                    0                       # Write request sizes (log2)
system.mem_ctrls.writePktSize::1                    0                       # Write request sizes (log2)
system.mem_ctrls.writePktSize::2                    0                       # Write request sizes (log2)
system.mem_ctrls.writePktSize::3                    0                       # Write request sizes (log2)
system.mem_ctrls.writePktSize::4                    0                       # Write request sizes (log2)
system.mem_ctrls.writePktSize::5                    0                       # Write request sizes (log2)
system.mem_ctrls.writePktSize::6                 2350                       # Write request sizes (log2)
system.mem_ctrls.rdQLenPdf::0                   70223                       # What read queue length does an incoming req see
system.mem_ctrls.rdQLenPdf::1                   14491                       # What read queue length does an incoming req see
system.mem_ctrls.rdQLenPdf::2                    1208                       # What read queue length does an incoming req see
system.mem_ctrls.rdQLenPdf::3                      44                       # What read queue length does an incoming req see
system.mem_ctrls.rdQLenPdf::4                       0                       # What read queue length does an incoming req see
system.mem_ctrls.rdQLenPdf::5                       0                       # What read queue length does an incoming req see
system.mem_ctrls.rdQLenPdf::6                       0                       # What read queue length does an incoming req see
system.mem_ctrls.rdQLenPdf::7                       0                       # What read queue length does an incoming req see
system.mem_ctrls.rdQLenPdf::8                       0                       # What read queue length does an incoming req see
system.mem_ctrls.rdQLenPdf::9                       0                       # What read queue length does an incoming req see
system.mem_ctrls.rdQLenPdf::10                      0                       # What read queue length does an incoming req see
system.mem_ctrls.rdQLenPdf::11                      0                       # What read queue length does an incoming req see
system.mem_ctrls.rdQLenPdf::12                      0                       # What read queue length does an incoming req see
system.mem_ctrls.rdQLenPdf::13                      0                       # What read queue length does an incoming req see
system.mem_ctrls.rdQLenPdf::14                      0                       # What read queue length does an incoming req see
system.mem_ctrls.rdQLenPdf::15                      0                       # What read queue length does an incoming req see
system.mem_ctrls.rdQLenPdf::16                      0                       # What read queue length does an incoming req see
system.mem_ctrls.rdQLenPdf::17                      0                       # What read queue length does an incoming req see
system.mem_ctrls.rdQLenPdf::18                      0                       # What read queue length does an incoming req see
system.mem_ctrls.rdQLenPdf::19                      0                       # What read queue length does an incoming req see
system.mem_ctrls.rdQLenPdf::20                      0                       # What read queue length does an incoming req see
system.mem_ctrls.rdQLenPdf::21                      0                       # What read queue length does an incoming req see
system.mem_ctrls.rdQLenPdf::22                      0                       # What read queue length does an incoming req see
system.mem_ctrls.rdQLenPdf::23                      0                       # What read queue length does an incoming req see
system.mem_ctrls.rdQLenPdf::24                      0                       # What read queue length does an incoming req see
system.mem_ctrls.rdQLenPdf::25                      0                       # What read queue length does an incoming req see
system.mem_ctrls.rdQLenPdf::26                      0                       # What read queue length does an incoming req see
system.mem_ctrls.rdQLenPdf::27                      0                       # What read queue length does an incoming req see
system.mem_ctrls.rdQLenPdf::28                      0                       # What read queue length does an incoming req see
system.mem_ctrls.rdQLenPdf::29                      0                       # What read queue length does an incoming req see
system.mem_ctrls.rdQLenPdf::30                      0                       # What read queue length does an incoming req see
system.mem_ctrls.rdQLenPdf::31                      0                       # What read queue length does an incoming req see
system.mem_ctrls.wrQLenPdf::0                       0                       # What write queue length does an incoming req see
system.mem_ctrls.wrQLenPdf::1                       0                       # What write queue length does an incoming req see
system.mem_ctrls.wrQLenPdf::2                       0                       # What write queue length does an incoming req see
system.mem_ctrls.wrQLenPdf::3                       0                       # What write queue length does an incoming req see
system.mem_ctrls.wrQLenPdf::4                       0                       # What write queue length does an incoming req see
system.mem_ctrls.wrQLenPdf::5                       0                       # What write queue length does an incoming req see
system.mem_ctrls.wrQLenPdf::6                       0                       # What write queue length does an incoming req see
system.mem_ctrls.wrQLenPdf::7                       0                       # What write queue length does an incoming req see
system.mem_ctrls.wrQLenPdf::8                       0                       # What write queue length does an incoming req see
system.mem_ctrls.wrQLenPdf::9                       0                       # What write queue length does an incoming req see
system.mem_ctrls.wrQLenPdf::10                      0                       # What write queue length does an incoming req see
system.mem_ctrls.wrQLenPdf::11                      0                       # What write queue length does an incoming req see
system.mem_ctrls.wrQLenPdf::12                      0                       # What write queue length does an incoming req see
system.mem_ctrls.wrQLenPdf::13                      0                       # What write queue length does an incoming req see
system.mem_ctrls.wrQLenPdf::14                      0                       # What write queue length does an incoming req see
system.mem_ctrls.wrQLenPdf::15                     35                       # What write queue length does an incoming req see
system.mem_ctrls.wrQLenPdf::16                     36                       # What write queue length does an incoming req see
system.mem_ctrls.wrQLenPdf::17                    133                       # What write queue length does an incoming req see
system.mem_ctrls.wrQLenPdf::18                    142                       # What write queue length does an incoming req see
system.mem_ctrls.wrQLenPdf::19                    143                       # What write queue length does an incoming req see
system.mem_ctrls.wrQLenPdf::20                    143                       # What write queue length does an incoming req see
system.mem_ctrls.wrQLenPdf::21                    144                       # What write queue length does an incoming req see
system.mem_ctrls.wrQLenPdf::22                    144                       # What write queue length does an incoming req see
system.mem_ctrls.wrQLenPdf::23                    142                       # What write queue length does an incoming req see
system.mem_ctrls.wrQLenPdf::24                    142                       # What write queue length does an incoming req see
system.mem_ctrls.wrQLenPdf::25                    142                       # What write queue length does an incoming req see
system.mem_ctrls.wrQLenPdf::26                    142                       # What write queue length does an incoming req see
system.mem_ctrls.wrQLenPdf::27                    144                       # What write queue length does an incoming req see
system.mem_ctrls.wrQLenPdf::28                    144                       # What write queue length does an incoming req see
system.mem_ctrls.wrQLenPdf::29                    145                       # What write queue length does an incoming req see
system.mem_ctrls.wrQLenPdf::30                    143                       # What write queue length does an incoming req see
system.mem_ctrls.wrQLenPdf::31                    143                       # What write queue length does an incoming req see
system.mem_ctrls.wrQLenPdf::32                    143                       # What write queue length does an incoming req see
system.mem_ctrls.wrQLenPdf::33                      0                       # What write queue length does an incoming req see
system.mem_ctrls.wrQLenPdf::34                      0                       # What write queue length does an incoming req see
system.mem_ctrls.wrQLenPdf::35                      0                       # What write queue length does an incoming req see
system.mem_ctrls.wrQLenPdf::36                      0                       # What write queue length does an incoming req see
system.mem_ctrls.wrQLenPdf::37                      0                       # What write queue length does an incoming req see
system.mem_ctrls.wrQLenPdf::38                      0                       # What write queue length does an incoming req see
system.mem_ctrls.wrQLenPdf::39                      0                       # What write queue length does an incoming req see
system.mem_ctrls.wrQLenPdf::40                      0                       # What write queue length does an incoming req see
system.mem_ctrls.wrQLenPdf::41                      0                       # What write queue length does an incoming req see
system.mem_ctrls.wrQLenPdf::42                      0                       # What write queue length does an incoming req see
system.mem_ctrls.wrQLenPdf::43                      0                       # What write queue length does an incoming req see
system.mem_ctrls.wrQLenPdf::44                      0                       # What write queue length does an incoming req see
system.mem_ctrls.wrQLenPdf::45                      0                       # What write queue length does an incoming req see
system.mem_ctrls.wrQLenPdf::46                      0                       # What write queue length does an incoming req see
system.mem_ctrls.wrQLenPdf::47                      0                       # What write queue length does an incoming req see
system.mem_ctrls.wrQLenPdf::48                      0                       # What write queue length does an incoming req see
system.mem_ctrls.wrQLenPdf::49                      0                       # What write queue length does an incoming req see
system.mem_ctrls.wrQLenPdf::50                      0                       # What write queue length does an incoming req see
system.mem_ctrls.wrQLenPdf::51                      0                       # What write queue length does an incoming req see
system.mem_ctrls.wrQLenPdf::52                      0                       # What write queue length does an incoming req see
system.mem_ctrls.wrQLenPdf::53                      0                       # What write queue length does an incoming req see
system.mem_ctrls.wrQLenPdf::54                      0                       # What write queue length does an incoming req see
system.mem_ctrls.wrQLenPdf::55                      0                       # What write queue length does an incoming req see
system.mem_ctrls.wrQLenPdf::56                      0                       # What write queue length does an incoming req see
system.mem_ctrls.wrQLenPdf::57                      0                       # What write queue length does an incoming req see
system.mem_ctrls.wrQLenPdf::58                      0                       # What write queue length does an incoming req see
system.mem_ctrls.wrQLenPdf::59                      0                       # What write queue length does an incoming req see
system.mem_ctrls.wrQLenPdf::60                      0                       # What write queue length does an incoming req see
system.mem_ctrls.wrQLenPdf::61                      0                       # What write queue length does an incoming req see
system.mem_ctrls.wrQLenPdf::62                      0                       # What write queue length does an incoming req see
system.mem_ctrls.wrQLenPdf::63                      0                       # What write queue length does an incoming req see
system.mem_ctrls.bytesPerActivate::samples        61760                       # Bytes accessed per row activation
system.mem_ctrls.bytesPerActivate::mean     91.524352                       # Bytes accessed per row activation
system.mem_ctrls.bytesPerActivate::gmean    82.656805                       # Bytes accessed per row activation
system.mem_ctrls.bytesPerActivate::stdev    49.733511                       # Bytes accessed per row activation
system.mem_ctrls.bytesPerActivate::64-127        43175     69.91%     69.91% # Bytes accessed per row activation
system.mem_ctrls.bytesPerActivate::128-191        12898     20.88%     90.79% # Bytes accessed per row activation
system.mem_ctrls.bytesPerActivate::192-255         4021      6.51%     97.30% # Bytes accessed per row activation
system.mem_ctrls.bytesPerActivate::256-319         1194      1.93%     99.24% # Bytes accessed per row activation
system.mem_ctrls.bytesPerActivate::320-383          357      0.58%     99.81% # Bytes accessed per row activation
system.mem_ctrls.bytesPerActivate::384-447           82      0.13%     99.95% # Bytes accessed per row activation
system.mem_ctrls.bytesPerActivate::448-511           30      0.05%    100.00% # Bytes accessed per row activation
system.mem_ctrls.bytesPerActivate::512-575            3      0.00%    100.00% # Bytes accessed per row activation
system.mem_ctrls.bytesPerActivate::total        61760                       # Bytes accessed per row activation
system.mem_ctrls.rdPerTurnAround::samples          142                       # Reads before turning the bus around for writes
system.mem_ctrls.rdPerTurnAround::mean     605.119718                       # Reads before turning the bus around for writes
system.mem_ctrls.rdPerTurnAround::gmean    573.199796                       # Reads before turning the bus around for writes
system.mem_ctrls.rdPerTurnAround::stdev    207.452446                       # Reads before turning the bus around for writes
system.mem_ctrls.rdPerTurnAround::192-255            1      0.70%      0.70% # Reads before turning the bus around for writes
system.mem_ctrls.rdPerTurnAround::256-319            6      4.23%      4.93% # Reads before turning the bus around for writes
system.mem_ctrls.rdPerTurnAround::320-383           10      7.04%     11.97% # Reads before turning the bus around for writes
system.mem_ctrls.rdPerTurnAround::384-447           14      9.86%     21.83% # Reads before turning the bus around for writes
system.mem_ctrls.rdPerTurnAround::448-511           16     11.27%     33.10% # Reads before turning the bus around for writes
system.mem_ctrls.rdPerTurnAround::512-575           21     14.79%     47.89% # Reads before turning the bus around for writes
system.mem_ctrls.rdPerTurnAround::576-639           19     13.38%     61.27% # Reads before turning the bus around for writes
system.mem_ctrls.rdPerTurnAround::640-703           17     11.97%     73.24% # Reads before turning the bus around for writes
system.mem_ctrls.rdPerTurnAround::704-767           17     11.97%     85.21% # Reads before turning the bus around for writes
system.mem_ctrls.rdPerTurnAround::768-831            5      3.52%     88.73% # Reads before turning the bus around for writes
system.mem_ctrls.rdPerTurnAround::832-895            6      4.23%     92.96% # Reads before turning the bus around for writes
system.mem_ctrls.rdPerTurnAround::896-959            3      2.11%     95.07% # Reads before turning the bus around for writes
system.mem_ctrls.rdPerTurnAround::960-1023            3      2.11%     97.18% # Reads before turning the bus around for writes
system.mem_ctrls.rdPerTurnAround::1024-1087            1      0.70%     97.89% # Reads before turning the bus around for writes
system.mem_ctrls.rdPerTurnAround::1152-1215            1      0.70%     98.59% # Reads before turning the bus around for writes
system.mem_ctrls.rdPerTurnAround::1216-1279            1      0.70%     99.30% # Reads before turning the bus around for writes
system.mem_ctrls.rdPerTurnAround::1664-1727            1      0.70%    100.00% # Reads before turning the bus around for writes
system.mem_ctrls.rdPerTurnAround::total           142                       # Reads before turning the bus around for writes
system.mem_ctrls.wrPerTurnAround::samples          142                       # Writes before turning the bus around for reads
system.mem_ctrls.wrPerTurnAround::mean      16.521127                       # Writes before turning the bus around for reads
system.mem_ctrls.wrPerTurnAround::gmean     16.497933                       # Writes before turning the bus around for reads
system.mem_ctrls.wrPerTurnAround::stdev      0.896948                       # Writes before turning the bus around for reads
system.mem_ctrls.wrPerTurnAround::16              105     73.94%     73.94% # Writes before turning the bus around for reads
system.mem_ctrls.wrPerTurnAround::17                2      1.41%     75.35% # Writes before turning the bus around for reads
system.mem_ctrls.wrPerTurnAround::18               33     23.24%     98.59% # Writes before turning the bus around for reads
system.mem_ctrls.wrPerTurnAround::19                2      1.41%    100.00% # Writes before turning the bus around for reads
system.mem_ctrls.wrPerTurnAround::total           142                       # Writes before turning the bus around for reads
system.mem_ctrls.totQLat                   2500267500                       # Total ticks spent queuing
system.mem_ctrls.totMemAccLat              4112130000                       # Total ticks spent from burst creation until serviced by the DRAM
system.mem_ctrls.totBusLat                  429830000                       # Total ticks spent in databus transfers
system.mem_ctrls.avgQLat                     29084.38                       # Average queueing delay per DRAM burst
system.mem_ctrls.avgBusLat                    5000.00                       # Average bus latency per DRAM burst
system.mem_ctrls.avgMemAccLat                47834.38                       # Average memory access latency per DRAM burst
system.mem_ctrls.avgRdBW                       360.37                       # Average DRAM read bandwidth in MiByte/s
system.mem_ctrls.avgWrBW                         9.83                       # Average achieved write bandwidth in MiByte/s
system.mem_ctrls.avgRdBWSys                    360.96                       # Average system read bandwidth in MiByte/s
system.mem_ctrls.avgWrBWSys                      9.85                       # Average system write bandwidth in MiByte/s
system.mem_ctrls.peakBW                      12800.00                       # Theoretical peak bandwidth in MiByte/s
system.mem_ctrls.busUtil                         2.89                       # Data bus utilization in percentage
system.mem_ctrls.busUtilRead                     2.82                       # Data bus utilization in percentage for reads
system.mem_ctrls.busUtilWrite                    0.08                       # Data bus utilization in percentage for writes
system.mem_ctrls.avgRdQLen                       1.15                       # Average read queue length when enqueuing
system.mem_ctrls.avgWrQLen                      25.34                       # Average write queue length when enqueuing
system.mem_ctrls.readRowHits                    25880                       # Number of row buffer hits during reads
system.mem_ctrls.writeRowHits                     680                       # Number of row buffer hits during writes
system.mem_ctrls.readRowHitRate                 30.10                       # Row buffer hit rate for reads
system.mem_ctrls.writeRowHitRate                28.94                       # Row buffer hit rate for writes
system.mem_ctrls.avgGap                     172590.83                       # Average gap between requests
system.mem_ctrls.pageHitRate                    30.07                       # Row buffer hit rate, read and write combined
system.mem_ctrls_0.actEnergy                229579560                       # Energy for activate commands per rank (pJ)
system.mem_ctrls_0.preEnergy                122043405                       # Energy for precharge commands per rank (pJ)
system.mem_ctrls_0.readEnergy               320129040                       # Energy for read commands per rank (pJ)
system.mem_ctrls_0.writeEnergy                7120080                       # Energy for write commands per rank (pJ)
system.mem_ctrls_0.refreshEnergy         1226821440.000000                       # Energy for refresh commands per rank (pJ)
system.mem_ctrls_0.actBackEnergy           1002128970                       # Energy for active background per rank (pJ)
system.mem_ctrls_0.preBackEnergy             34533600                       # Energy for precharge background per rank (pJ)
system.mem_ctrls_0.actPowerDownEnergy      4846373130                       # Energy for active power-down per rank (pJ)
system.mem_ctrls_0.prePowerDownEnergy       729484320                       # Energy for precharge power-down per rank (pJ)
system.mem_ctrls_0.selfRefreshEnergy        163716600                       # Energy for self refresh per rank (pJ)
system.mem_ctrls_0.totalEnergy             8682182115                       # Total energy per rank (pJ)
system.mem_ctrls_0.averagePower            568.676650                       # Core power per rank (mW)
system.mem_ctrls_0.totalIdleTime          12979033750                       # Total Idle time Per DRAM Rank
system.mem_ctrls_0.memoryStateTime::IDLE     36132000                       # Time in different power states
system.mem_ctrls_0.memoryStateTime::REF     519578000                       # Time in different power states
system.mem_ctrls_0.memoryStateTime::SREF    451492250                       # Time in different power states
system.mem_ctrls_0.memoryStateTime::PRE_PDN   1899628000                       # Time in different power states
system.mem_ctrls_0.memoryStateTime::ACT    1732433500                       # Time in different power states
system.mem_ctrls_0.memoryStateTime::ACT_PDN  10628080375                       # Time in different power states
system.mem_ctrls_1.actEnergy                211329720                       # Energy for activate commands per rank (pJ)
system.mem_ctrls_1.preEnergy                112335795                       # Energy for precharge commands per rank (pJ)
system.mem_ctrls_1.readEnergy               293668200                       # Energy for read commands per rank (pJ)
system.mem_ctrls_1.writeEnergy                5126040                       # Energy for write commands per rank (pJ)
system.mem_ctrls_1.refreshEnergy         1224362880.000000                       # Energy for refresh commands per rank (pJ)
system.mem_ctrls_1.actBackEnergy            941384070                       # Energy for active background per rank (pJ)
system.mem_ctrls_1.preBackEnergy             34622880                       # Energy for precharge background per rank (pJ)
system.mem_ctrls_1.actPowerDownEnergy      4823901450                       # Energy for active power-down per rank (pJ)
system.mem_ctrls_1.prePowerDownEnergy       776228640                       # Energy for precharge power-down per rank (pJ)
system.mem_ctrls_1.selfRefreshEnergy        180452760                       # Energy for self refresh per rank (pJ)
system.mem_ctrls_1.totalEnergy             8603831715                       # Total energy per rank (pJ)
system.mem_ctrls_1.averagePower            563.544756                       # Core power per rank (mW)
system.mem_ctrls_1.totalIdleTime          13111356250                       # Total Idle time Per DRAM Rank
system.mem_ctrls_1.memoryStateTime::IDLE     37236000                       # Time in different power states
system.mem_ctrls_1.memoryStateTime::REF     518562000                       # Time in different power states
system.mem_ctrls_1.memoryStateTime::SREF    511649000                       # Time in different power states
system.mem_ctrls_1.memoryStateTime::PRE_PDN   2021370000                       # Time in different power states
system.mem_ctrls_1.memoryStateTime::ACT    1599781000                       # Time in different power states
system.mem_ctrls_1.memoryStateTime::ACT_PDN  10578746125                       # Time in different power states
system.pwrStateResidencyTicks::UNDEFINED  15267344125                       # Cumulative time (in ticks) in various power states
system.cpu0.branchPred.lookups                4270849                       # Number of BP lookups
system.cpu0.branchPred.condPredicted          4270849                       # Number of conditional branches predicted
system.cpu0.branchPred.condIncorrect           169287                       # Number of conditional branches incorrect
system.cpu0.branchPred.BTBLookups             3333880                       # Number of BTB lookups
system.cpu0.branchPred.BTBHits                      0                       # Number of BTB hits
system.cpu0.branchPred.BTBCorrect                   0                       # Number of correct BTB predictions (this stat may not work properly.
system.cpu0.branchPred.BTBHitPct             0.000000                       # BTB Hit Percentage
system.cpu0.branchPred.usedRAS                 100520                       # Number of times the RAS was used to get a target.
system.cpu0.branchPred.RASInCorrect             13852                       # Number of incorrect RAS predictions.
system.cpu0.branchPred.indirectLookups        3333880                       # Number of indirect predictor lookups.
system.cpu0.branchPred.indirectHits           1852314                       # Number of indirect target hits.
system.cpu0.branchPred.indirectMisses         1481566                       # Number of indirect misses.
system.cpu0.branchPredindirectMispredicted        56623                       # Number of mispredicted indirect branches.
system.cpu_voltage_domain.voltage                   1                       # Voltage in Volts
system.cpu_clk_domain.clock                       500                       # Clock period in ticks
system.cpu0.dtb.walker.pwrStateResidencyTicks::UNDEFINED  15267344125                       # Cumulative time (in ticks) in various power states
system.cpu0.dtb.rdAccesses                    2118017                       # TLB accesses on read requests
system.cpu0.dtb.wrAccesses                     121506                       # TLB accesses on write requests
system.cpu0.dtb.rdMisses                       478631                       # TLB misses on read requests
system.cpu0.dtb.wrMisses                         2267                       # TLB misses on write requests
system.cpu0.apic_clk_domain.clock                8000                       # Clock period in ticks
system.cpu0.interrupts.pwrStateResidencyTicks::UNDEFINED  15267344125                       # Cumulative time (in ticks) in various power states
system.cpu0.itb.walker.pwrStateResidencyTicks::UNDEFINED  15267344125                       # Cumulative time (in ticks) in various power states
system.cpu0.itb.rdAccesses                          0                       # TLB accesses on read requests
system.cpu0.itb.wrAccesses                    3635099                       # TLB accesses on write requests
system.cpu0.itb.rdMisses                            0                       # TLB misses on read requests
system.cpu0.itb.wrMisses                         8768                       # TLB misses on write requests
system.cpu0.workload.numSyscalls                    0                       # Number of system calls
system.cpu0.pwrStateResidencyTicks::ON    15267344125                       # Cumulative time (in ticks) in various power states
system.cpu0.numCycles                        30534688                       # number of cpu cycles simulated
system.cpu0.numWorkItemsStarted                     0                       # number of work items this cpu started
system.cpu0.numWorkItemsCompleted                   0                       # number of work items this cpu completed
system.cpu0.fetch.icacheStallCycles           3709694                       # Number of cycles fetch is stalled on an Icache miss
system.cpu0.fetch.Insts                      12194538                       # Number of instructions fetch has processed
system.cpu0.fetch.Branches                    4270849                       # Number of branches that fetch encountered
system.cpu0.fetch.predictedBranches           1952834                       # Number of branches that fetch has predicted taken
system.cpu0.fetch.Cycles                     26572651                       # Number of cycles fetch has run and was not squashing or blocked
system.cpu0.fetch.SquashCycles                 343782                       # Number of cycles fetch has spent squashing
system.cpu0.fetch.TlbCycles                      1265                       # Number of cycles fetch has spent waiting for tlb
system.cpu0.fetch.MiscStallCycles                1786                       # Number of cycles fetch has spent waiting on interrupts, or bad addresses, or out of MSHRs
system.cpu0.fetch.PendingTrapStallCycles        65610                       # Number of stall cycles due to pending traps
system.cpu0.fetch.CacheLines                  3626331                       # Number of cache lines fetched
system.cpu0.fetch.IcacheSquashes                27254                       # Number of outstanding Icache misses that were squashed
system.cpu0.fetch.ItlbSquashes                     18                       # Number of outstanding ITLB misses that were squashed
system.cpu0.fetch.rateDist::samples          30522897                       # Number of instructions fetched each cycle (Total)
system.cpu0.fetch.rateDist::mean             0.802480                       # Number of instructions fetched each cycle (Total)
system.cpu0.fetch.rateDist::stdev            2.162736                       # Number of instructions fetched each cycle (Total)
system.cpu0.fetch.rateDist::underflows              0      0.00%      0.00% # Number of instructions fetched each cycle (Total)
system.cpu0.fetch.rateDist::0                25723265     84.28%     84.28% # Number of instructions fetched each cycle (Total)
system.cpu0.fetch.rateDist::1                   62902      0.21%     84.48% # Number of instructions fetched each cycle (Total)
system.cpu0.fetch.rateDist::2                 1825392      5.98%     90.46% # Number of instructions fetched each cycle (Total)
system.cpu0.fetch.rateDist::3                   58884      0.19%     90.65% # Number of instructions fetched each cycle (Total)
system.cpu0.fetch.rateDist::4                  331411      1.09%     91.74% # Number of instructions fetched each cycle (Total)
system.cpu0.fetch.rateDist::5                  131876      0.43%     92.17% # Number of instructions fetched each cycle (Total)
system.cpu0.fetch.rateDist::6                  222163      0.73%     92.90% # Number of instructions fetched each cycle (Total)
system.cpu0.fetch.rateDist::7                   50363      0.17%     93.07% # Number of instructions fetched each cycle (Total)
system.cpu0.fetch.rateDist::8                 2116641      6.93%    100.00% # Number of instructions fetched each cycle (Total)
system.cpu0.fetch.rateDist::overflows               0      0.00%    100.00% # Number of instructions fetched each cycle (Total)
system.cpu0.fetch.rateDist::min_value               0                       # Number of instructions fetched each cycle (Total)
system.cpu0.fetch.rateDist::max_value               8                       # Number of instructions fetched each cycle (Total)
system.cpu0.fetch.rateDist::total            30522897                       # Number of instructions fetched each cycle (Total)
system.cpu0.fetch.branchRate                 0.139869                       # Number of branch fetches per cycle
system.cpu0.fetch.rate                       0.399367                       # Number of inst fetches per cycle
system.cpu0.decode.IdleCycles                 1881849                       # Number of cycles decode is idle
system.cpu0.decode.BlockedCycles             25233988                       # Number of cycles decode is blocked
system.cpu0.decode.RunCycles                  2399280                       # Number of cycles decode is running
system.cpu0.decode.UnblockCycles               835889                       # Number of cycles decode is unblocking
system.cpu0.decode.SquashCycles                171891                       # Number of cycles decode is squashing
system.cpu0.decode.DecodedInsts              20843824                       # Number of instructions handled by decode
system.cpu0.rename.SquashCycles                171891                       # Number of cycles rename is squashing
system.cpu0.rename.IdleCycles                 2179415                       # Number of cycles rename is idle
system.cpu0.rename.BlockCycles               22342990                       # Number of cycles rename is blocking
system.cpu0.rename.serializeStallCycles         40228                       # count of cycles rename stalled for serializing inst
system.cpu0.rename.RunCycles                  2768096                       # Number of cycles rename is running
system.cpu0.rename.UnblockCycles              3020277                       # Number of cycles rename is unblocking
system.cpu0.rename.RenamedInsts              20065176                       # Number of instructions processed by rename
system.cpu0.rename.ROBFullEvents                57011                       # Number of times rename has blocked due to ROB full
system.cpu0.rename.IQFullEvents               2717203                       # Number of times rename has blocked due to IQ full
system.cpu0.rename.LQFullEvents                137908                       # Number of times rename has blocked due to LQ full
system.cpu0.rename.SQFullEvents                 27739                       # Number of times rename has blocked due to SQ full
system.cpu0.rename.RenamedOperands           23935324                       # Number of destination operands rename has renamed
system.cpu0.rename.RenameLookups             56095960                       # Number of register rename lookups that rename has made
system.cpu0.rename.int_rename_lookups        26074265                       # Number of integer rename lookups
system.cpu0.rename.fp_rename_lookups            99001                       # Number of floating rename lookups
system.cpu0.rename.CommittedMaps              9435710                       # Number of HB maps that are committed
system.cpu0.rename.UndoneMaps                14499639                       # Number of HB maps that are undone due to squashing
system.cpu0.rename.serializingInsts               910                       # count of serializing insts renamed
system.cpu0.rename.tempSerializingInsts          1082                       # count of temporary serializing insts renamed
system.cpu0.rename.skidInsts                  5242541                       # count of insts added to the skid buffer
system.cpu0.memDep0.insertedLoads             3630296                       # Number of loads inserted to the mem dependence unit.
system.cpu0.memDep0.insertedStores             182024                       # Number of stores inserted to the mem dependence unit.
system.cpu0.memDep0.conflictingLoads            13667                       # Number of conflicting loads.
system.cpu0.memDep0.conflictingStores           12820                       # Number of conflicting stores.
system.cpu0.iq.iqInstsAdded                  19062184                       # Number of instructions added to the IQ (excludes non-spec)
system.cpu0.iq.iqNonSpecInstsAdded              11352                       # Number of non-speculative instructions added to the IQ
system.cpu0.iq.iqInstsIssued                 13884440                       # Number of instructions issued
system.cpu0.iq.iqSquashedInstsIssued            18824                       # Number of squashed instructions issued
system.cpu0.iq.iqSquashedInstsExamined       11208862                       # Number of squashed instructions iterated over during squash; mainly for profiling
system.cpu0.iq.iqSquashedOperandsExamined     24017043                       # Number of squashed operands that are examined and possibly removed from graph
system.cpu0.iq.iqSquashedNonSpecRemoved         11352                       # Number of squashed non-spec instructions that were removed
system.cpu0.iq.issued_per_cycle::samples     30522897                       # Number of insts issued each cycle
system.cpu0.iq.issued_per_cycle::mean        0.454886                       # Number of insts issued each cycle
system.cpu0.iq.issued_per_cycle::stdev       1.181757                       # Number of insts issued each cycle
system.cpu0.iq.issued_per_cycle::underflows            0      0.00%      0.00% # Number of insts issued each cycle
system.cpu0.iq.issued_per_cycle::0           24910078     81.61%     81.61% # Number of insts issued each cycle
system.cpu0.iq.issued_per_cycle::1            2154524      7.06%     88.67% # Number of insts issued each cycle
system.cpu0.iq.issued_per_cycle::2            1196240      3.92%     92.59% # Number of insts issued each cycle
system.cpu0.iq.issued_per_cycle::3             838726      2.75%     95.34% # Number of insts issued each cycle
system.cpu0.iq.issued_per_cycle::4             814748      2.67%     98.01% # Number of insts issued each cycle
system.cpu0.iq.issued_per_cycle::5             278331      0.91%     98.92% # Number of insts issued each cycle
system.cpu0.iq.issued_per_cycle::6             197584      0.65%     99.57% # Number of insts issued each cycle
system.cpu0.iq.issued_per_cycle::7              76221      0.25%     99.82% # Number of insts issued each cycle
system.cpu0.iq.issued_per_cycle::8              56445      0.18%    100.00% # Number of insts issued each cycle
system.cpu0.iq.issued_per_cycle::overflows            0      0.00%    100.00% # Number of insts issued each cycle
system.cpu0.iq.issued_per_cycle::min_value            0                       # Number of insts issued each cycle
system.cpu0.iq.issued_per_cycle::max_value            8                       # Number of insts issued each cycle
system.cpu0.iq.issued_per_cycle::total       30522897                       # Number of insts issued each cycle
system.cpu0.iq.fu_full::No_OpClass                  0      0.00%      0.00% # attempts to use FU when none available
system.cpu0.iq.fu_full::IntAlu                  30731     71.99%     71.99% # attempts to use FU when none available
system.cpu0.iq.fu_full::IntMult                     0      0.00%     71.99% # attempts to use FU when none available
system.cpu0.iq.fu_full::IntDiv                      0      0.00%     71.99% # attempts to use FU when none available
system.cpu0.iq.fu_full::FloatAdd                 2856      6.69%     78.68% # attempts to use FU when none available
system.cpu0.iq.fu_full::FloatCmp                    0      0.00%     78.68% # attempts to use FU when none available
system.cpu0.iq.fu_full::FloatCvt                    0      0.00%     78.68% # attempts to use FU when none available
system.cpu0.iq.fu_full::FloatMult                   0      0.00%     78.68% # attempts to use FU when none available
system.cpu0.iq.fu_full::FloatMultAcc                0      0.00%     78.68% # attempts to use FU when none available
system.cpu0.iq.fu_full::FloatDiv                    0      0.00%     78.68% # attempts to use FU when none available
system.cpu0.iq.fu_full::FloatMisc                   0      0.00%     78.68% # attempts to use FU when none available
system.cpu0.iq.fu_full::FloatSqrt                   0      0.00%     78.68% # attempts to use FU when none available
system.cpu0.iq.fu_full::SimdAdd                     0      0.00%     78.68% # attempts to use FU when none available
system.cpu0.iq.fu_full::SimdAddAcc                  0      0.00%     78.68% # attempts to use FU when none available
system.cpu0.iq.fu_full::SimdAlu                     0      0.00%     78.68% # attempts to use FU when none available
system.cpu0.iq.fu_full::SimdCmp                     0      0.00%     78.68% # attempts to use FU when none available
system.cpu0.iq.fu_full::SimdCvt                     0      0.00%     78.68% # attempts to use FU when none available
system.cpu0.iq.fu_full::SimdMisc                    0      0.00%     78.68% # attempts to use FU when none available
system.cpu0.iq.fu_full::SimdMult                    0      0.00%     78.68% # attempts to use FU when none available
system.cpu0.iq.fu_full::SimdMultAcc                 0      0.00%     78.68% # attempts to use FU when none available
system.cpu0.iq.fu_full::SimdShift                   0      0.00%     78.68% # attempts to use FU when none available
system.cpu0.iq.fu_full::SimdShiftAcc                0      0.00%     78.68% # attempts to use FU when none available
system.cpu0.iq.fu_full::SimdSqrt                    0      0.00%     78.68% # attempts to use FU when none available
system.cpu0.iq.fu_full::SimdFloatAdd                0      0.00%     78.68% # attempts to use FU when none available
system.cpu0.iq.fu_full::SimdFloatAlu                0      0.00%     78.68% # attempts to use FU when none available
system.cpu0.iq.fu_full::SimdFloatCmp                0      0.00%     78.68% # attempts to use FU when none available
system.cpu0.iq.fu_full::SimdFloatCvt                0      0.00%     78.68% # attempts to use FU when none available
system.cpu0.iq.fu_full::SimdFloatDiv                0      0.00%     78.68% # attempts to use FU when none available
system.cpu0.iq.fu_full::SimdFloatMisc               0      0.00%     78.68% # attempts to use FU when none available
system.cpu0.iq.fu_full::SimdFloatMult               0      0.00%     78.68% # attempts to use FU when none available
system.cpu0.iq.fu_full::SimdFloatMultAcc            0      0.00%     78.68% # attempts to use FU when none available
system.cpu0.iq.fu_full::SimdFloatSqrt               0      0.00%     78.68% # attempts to use FU when none available
system.cpu0.iq.fu_full::MemRead                  7848     18.38%     97.06% # attempts to use FU when none available
system.cpu0.iq.fu_full::MemWrite                  740      1.73%     98.79% # attempts to use FU when none available
system.cpu0.iq.fu_full::FloatMemRead              413      0.97%     99.76% # attempts to use FU when none available
system.cpu0.iq.fu_full::FloatMemWrite             102      0.24%    100.00% # attempts to use FU when none available
system.cpu0.iq.fu_full::IprAccess                   0      0.00%    100.00% # attempts to use FU when none available
system.cpu0.iq.fu_full::InstPrefetch                0      0.00%    100.00% # attempts to use FU when none available
system.cpu0.iq.FU_type_0::No_OpClass            40368      0.29%      0.29% # Type of FU issued
system.cpu0.iq.FU_type_0::IntAlu             11417887     82.24%     82.53% # Type of FU issued
system.cpu0.iq.FU_type_0::IntMult                2284      0.02%     82.54% # Type of FU issued
system.cpu0.iq.FU_type_0::IntDiv                24587      0.18%     82.72% # Type of FU issued
system.cpu0.iq.FU_type_0::FloatAdd              35465      0.26%     82.97% # Type of FU issued
system.cpu0.iq.FU_type_0::FloatCmp                  0      0.00%     82.97% # Type of FU issued
system.cpu0.iq.FU_type_0::FloatCvt                  0      0.00%     82.97% # Type of FU issued
system.cpu0.iq.FU_type_0::FloatMult                 0      0.00%     82.97% # Type of FU issued
system.cpu0.iq.FU_type_0::FloatMultAcc              0      0.00%     82.97% # Type of FU issued
system.cpu0.iq.FU_type_0::FloatDiv                  0      0.00%     82.97% # Type of FU issued
system.cpu0.iq.FU_type_0::FloatMisc                 0      0.00%     82.97% # Type of FU issued
system.cpu0.iq.FU_type_0::FloatSqrt                 0      0.00%     82.97% # Type of FU issued
system.cpu0.iq.FU_type_0::SimdAdd                   0      0.00%     82.97% # Type of FU issued
system.cpu0.iq.FU_type_0::SimdAddAcc                0      0.00%     82.97% # Type of FU issued
system.cpu0.iq.FU_type_0::SimdAlu                   0      0.00%     82.97% # Type of FU issued
system.cpu0.iq.FU_type_0::SimdCmp                   0      0.00%     82.97% # Type of FU issued
system.cpu0.iq.FU_type_0::SimdCvt                   0      0.00%     82.97% # Type of FU issued
system.cpu0.iq.FU_type_0::SimdMisc                  0      0.00%     82.97% # Type of FU issued
system.cpu0.iq.FU_type_0::SimdMult                  0      0.00%     82.97% # Type of FU issued
system.cpu0.iq.FU_type_0::SimdMultAcc               0      0.00%     82.97% # Type of FU issued
system.cpu0.iq.FU_type_0::SimdShift                 0      0.00%     82.97% # Type of FU issued
system.cpu0.iq.FU_type_0::SimdShiftAcc              0      0.00%     82.97% # Type of FU issued
system.cpu0.iq.FU_type_0::SimdSqrt                  0      0.00%     82.97% # Type of FU issued
system.cpu0.iq.FU_type_0::SimdFloatAdd              0      0.00%     82.97% # Type of FU issued
system.cpu0.iq.FU_type_0::SimdFloatAlu              0      0.00%     82.97% # Type of FU issued
system.cpu0.iq.FU_type_0::SimdFloatCmp              0      0.00%     82.97% # Type of FU issued
system.cpu0.iq.FU_type_0::SimdFloatCvt              0      0.00%     82.97% # Type of FU issued
system.cpu0.iq.FU_type_0::SimdFloatDiv              0      0.00%     82.97% # Type of FU issued
system.cpu0.iq.FU_type_0::SimdFloatMisc             0      0.00%     82.97% # Type of FU issued
system.cpu0.iq.FU_type_0::SimdFloatMult             0      0.00%     82.97% # Type of FU issued
system.cpu0.iq.FU_type_0::SimdFloatMultAcc            0      0.00%     82.97% # Type of FU issued
system.cpu0.iq.FU_type_0::SimdFloatSqrt             0      0.00%     82.97% # Type of FU issued
system.cpu0.iq.FU_type_0::MemRead             2224729     16.02%     99.00% # Type of FU issued
system.cpu0.iq.FU_type_0::MemWrite             131447      0.95%     99.94% # Type of FU issued
system.cpu0.iq.FU_type_0::FloatMemRead           7303      0.05%    100.00% # Type of FU issued
system.cpu0.iq.FU_type_0::FloatMemWrite           370      0.00%    100.00% # Type of FU issued
system.cpu0.iq.FU_type_0::IprAccess                 0      0.00%    100.00% # Type of FU issued
system.cpu0.iq.FU_type_0::InstPrefetch              0      0.00%    100.00% # Type of FU issued
system.cpu0.iq.FU_type_0::total              13884440                       # Type of FU issued
system.cpu0.iq.rate                          0.454710                       # Inst issue rate
system.cpu0.iq.fu_busy_cnt                      42690                       # FU busy when requested
system.cpu0.iq.fu_busy_rate                  0.003075                       # FU busy rate (busy events/executed inst)
system.cpu0.iq.int_inst_queue_reads          58262914                       # Number of integer instruction queue reads
system.cpu0.iq.int_inst_queue_writes         30195409                       # Number of integer instruction queue writes
system.cpu0.iq.int_inst_queue_wakeup_accesses     13314462                       # Number of integer instruction queue wakeup accesses
system.cpu0.iq.fp_inst_queue_reads              90377                       # Number of floating instruction queue reads
system.cpu0.iq.fp_inst_queue_writes             86994                       # Number of floating instruction queue writes
system.cpu0.iq.fp_inst_queue_wakeup_accesses        38834                       # Number of floating instruction queue wakeup accesses
system.cpu0.iq.vec_inst_queue_reads                 0                       # Number of vector instruction queue reads
system.cpu0.iq.vec_inst_queue_writes                0                       # Number of vector instruction queue writes
system.cpu0.iq.vec_inst_queue_wakeup_accesses            0                       # Number of vector instruction queue wakeup accesses
system.cpu0.iq.int_alu_accesses              13840211                       # Number of integer alu accesses
system.cpu0.iq.fp_alu_accesses                  46551                       # Number of floating point alu accesses
system.cpu0.iq.vec_alu_accesses                     0                       # Number of vector alu accesses
system.cpu0.iew.lsq.thread0.forwLoads           10815                       # Number of loads that had data forwarded from stores
system.cpu0.iew.lsq.thread0.invAddrLoads            0                       # Number of loads ignored due to an invalid address
system.cpu0.iew.lsq.thread0.squashedLoads      2141876                       # Number of loads squashed
system.cpu0.iew.lsq.thread0.ignoredResponses          315                       # Number of memory responses ignored because the instruction is squashed
system.cpu0.iew.lsq.thread0.memOrderViolation            7                       # Number of memory ordering violations
system.cpu0.iew.lsq.thread0.squashedStores       111057                       # Number of stores squashed
system.cpu0.iew.lsq.thread0.invAddrSwpfs            0                       # Number of software prefetches ignored due to an invalid address
system.cpu0.iew.lsq.thread0.blockedLoads            0                       # Number of blocked loads due to partial load-store forwarding
system.cpu0.iew.lsq.thread0.rescheduledLoads           78                       # Number of loads that were rescheduled
system.cpu0.iew.lsq.thread0.cacheBlocked         6724                       # Number of times an access to memory failed due to the cache being blocked
system.cpu0.iew.iewIdleCycles                       0                       # Number of cycles IEW is idle
system.cpu0.iew.iewSquashCycles                171891                       # Number of cycles IEW is squashing
system.cpu0.iew.iewBlockCycles               19565774                       # Number of cycles IEW is blocking
system.cpu0.iew.iewUnblockCycles               517071                       # Number of cycles IEW is unblocking
system.cpu0.iew.iewDispatchedInsts           19073536                       # Number of instructions dispatched to IQ
system.cpu0.iew.iewDispSquashedInsts             9070                       # Number of squashed instructions skipped by dispatch
system.cpu0.iew.iewDispLoadInsts              3630296                       # Number of dispatched load instructions
system.cpu0.iew.iewDispStoreInsts              182024                       # Number of dispatched store instructions
system.cpu0.iew.iewDispNonSpecInsts              4289                       # Number of dispatched non-speculative instructions
system.cpu0.iew.iewIQFullEvents                 34641                       # Number of times the IQ has become full, causing a stall
system.cpu0.iew.iewLSQFullEvents                33460                       # Number of times the LSQ has become full, causing a stall
system.cpu0.iew.memOrderViolationEvents             7                       # Number of memory order violations
system.cpu0.iew.predictedTakenIncorrect         92311                       # Number of branches that were predicted taken incorrectly
system.cpu0.iew.predictedNotTakenIncorrect        98138                       # Number of branches that were predicted not taken incorrectly
system.cpu0.iew.branchMispredicts              190449                       # Number of branch mispredicts detected at execute
system.cpu0.iew.iewExecutedInsts             13615601                       # Number of executed instructions
system.cpu0.iew.iewExecLoadInsts              2117353                       # Number of load instructions executed
system.cpu0.iew.iewExecSquashedInsts           268839                       # Number of squashed instructions skipped in execute
system.cpu0.iew.exec_swp                            0                       # number of swp insts executed
system.cpu0.iew.exec_nop                            0                       # number of nop insts executed
system.cpu0.iew.exec_refs                     2238824                       # number of memory reference insts executed
system.cpu0.iew.exec_branches                 1719761                       # Number of branches executed
system.cpu0.iew.exec_stores                    121471                       # Number of stores executed
system.cpu0.iew.exec_rate                    0.445906                       # Inst execution rate
system.cpu0.iew.wb_sent                      13395230                       # cumulative count of insts sent to commit
system.cpu0.iew.wb_count                     13353296                       # cumulative count of insts written-back
system.cpu0.iew.wb_producers                  9852269                       # num instructions producing a value
system.cpu0.iew.wb_consumers                 15785980                       # num instructions consuming a value
system.cpu0.iew.wb_rate                      0.437316                       # insts written-back per cycle
system.cpu0.iew.wb_fanout                    0.624115                       # average fanout of values written-back
system.cpu0.commit.commitSquashedInsts       11209602                       # The number of squashed insts skipped by commit
system.cpu0.commit.branchMispredicts           171888                       # The number of times a branch was mispredicted
system.cpu0.commit.committed_per_cycle::samples     28954601                       # Number of insts commited each cycle
system.cpu0.commit.committed_per_cycle::mean     0.271622                       # Number of insts commited each cycle
system.cpu0.commit.committed_per_cycle::stdev     0.933679                       # Number of insts commited each cycle
system.cpu0.commit.committed_per_cycle::underflows            0      0.00%      0.00% # Number of insts commited each cycle
system.cpu0.commit.committed_per_cycle::0     25544284     88.22%     88.22% # Number of insts commited each cycle
system.cpu0.commit.committed_per_cycle::1      1557243      5.38%     93.60% # Number of insts commited each cycle
system.cpu0.commit.committed_per_cycle::2       383478      1.32%     94.92% # Number of insts commited each cycle
system.cpu0.commit.committed_per_cycle::3      1044882      3.61%     98.53% # Number of insts commited each cycle
system.cpu0.commit.committed_per_cycle::4       162770      0.56%     99.10% # Number of insts commited each cycle
system.cpu0.commit.committed_per_cycle::5        98127      0.34%     99.43% # Number of insts commited each cycle
system.cpu0.commit.committed_per_cycle::6        18361      0.06%     99.50% # Number of insts commited each cycle
system.cpu0.commit.committed_per_cycle::7         9679      0.03%     99.53% # Number of insts commited each cycle
system.cpu0.commit.committed_per_cycle::8       135777      0.47%    100.00% # Number of insts commited each cycle
system.cpu0.commit.committed_per_cycle::overflows            0      0.00%    100.00% # Number of insts commited each cycle
system.cpu0.commit.committed_per_cycle::min_value            0                       # Number of insts commited each cycle
system.cpu0.commit.committed_per_cycle::max_value            8                       # Number of insts commited each cycle
system.cpu0.commit.committed_per_cycle::total     28954601                       # Number of insts commited each cycle
system.cpu0.commit.committedInsts             3934690                       # Number of instructions committed
system.cpu0.commit.committedOps               7864695                       # Number of ops (including micro ops) committed
system.cpu0.commit.swp_count                        0                       # Number of s/w prefetches committed
system.cpu0.commit.refs                       1559392                       # Number of memory references committed
system.cpu0.commit.loads                      1488425                       # Number of loads committed
system.cpu0.commit.membars                          0                       # Number of memory barriers committed
system.cpu0.commit.branches                   1429682                       # Number of branches committed
system.cpu0.commit.vec_insts                        0                       # Number of committed Vector instructions.
system.cpu0.commit.fp_insts                     28598                       # Number of committed floating point instructions.
system.cpu0.commit.int_insts                  7835817                       # Number of committed integer instructions.
system.cpu0.commit.function_calls               12550                       # Number of function calls committed.
system.cpu0.commit.op_class_0::No_OpClass         8636      0.11%      0.11% # Class of committed instruction
system.cpu0.commit.op_class_0::IntAlu         6250755     79.48%     79.59% # Class of committed instruction
system.cpu0.commit.op_class_0::IntMult            502      0.01%     79.59% # Class of committed instruction
system.cpu0.commit.op_class_0::IntDiv           20990      0.27%     79.86% # Class of committed instruction
system.cpu0.commit.op_class_0::FloatAdd         24420      0.31%     80.17% # Class of committed instruction
system.cpu0.commit.op_class_0::FloatCmp             0      0.00%     80.17% # Class of committed instruction
system.cpu0.commit.op_class_0::FloatCvt             0      0.00%     80.17% # Class of committed instruction
system.cpu0.commit.op_class_0::FloatMult            0      0.00%     80.17% # Class of committed instruction
system.cpu0.commit.op_class_0::FloatMultAcc            0      0.00%     80.17% # Class of committed instruction
system.cpu0.commit.op_class_0::FloatDiv             0      0.00%     80.17% # Class of committed instruction
system.cpu0.commit.op_class_0::FloatMisc            0      0.00%     80.17% # Class of committed instruction
system.cpu0.commit.op_class_0::FloatSqrt            0      0.00%     80.17% # Class of committed instruction
system.cpu0.commit.op_class_0::SimdAdd              0      0.00%     80.17% # Class of committed instruction
system.cpu0.commit.op_class_0::SimdAddAcc            0      0.00%     80.17% # Class of committed instruction
system.cpu0.commit.op_class_0::SimdAlu              0      0.00%     80.17% # Class of committed instruction
system.cpu0.commit.op_class_0::SimdCmp              0      0.00%     80.17% # Class of committed instruction
system.cpu0.commit.op_class_0::SimdCvt              0      0.00%     80.17% # Class of committed instruction
system.cpu0.commit.op_class_0::SimdMisc             0      0.00%     80.17% # Class of committed instruction
system.cpu0.commit.op_class_0::SimdMult             0      0.00%     80.17% # Class of committed instruction
system.cpu0.commit.op_class_0::SimdMultAcc            0      0.00%     80.17% # Class of committed instruction
system.cpu0.commit.op_class_0::SimdShift            0      0.00%     80.17% # Class of committed instruction
system.cpu0.commit.op_class_0::SimdShiftAcc            0      0.00%     80.17% # Class of committed instruction
system.cpu0.commit.op_class_0::SimdSqrt             0      0.00%     80.17% # Class of committed instruction
system.cpu0.commit.op_class_0::SimdFloatAdd            0      0.00%     80.17% # Class of committed instruction
system.cpu0.commit.op_class_0::SimdFloatAlu            0      0.00%     80.17% # Class of committed instruction
system.cpu0.commit.op_class_0::SimdFloatCmp            0      0.00%     80.17% # Class of committed instruction
system.cpu0.commit.op_class_0::SimdFloatCvt            0      0.00%     80.17% # Class of committed instruction
system.cpu0.commit.op_class_0::SimdFloatDiv            0      0.00%     80.17% # Class of committed instruction
system.cpu0.commit.op_class_0::SimdFloatMisc            0      0.00%     80.17% # Class of committed instruction
system.cpu0.commit.op_class_0::SimdFloatMult            0      0.00%     80.17% # Class of committed instruction
system.cpu0.commit.op_class_0::SimdFloatMultAcc            0      0.00%     80.17% # Class of committed instruction
system.cpu0.commit.op_class_0::SimdFloatSqrt            0      0.00%     80.17% # Class of committed instruction
system.cpu0.commit.op_class_0::MemRead        1484247     18.87%     99.04% # Class of committed instruction
system.cpu0.commit.op_class_0::MemWrite         70967      0.90%     99.95% # Class of committed instruction
system.cpu0.commit.op_class_0::FloatMemRead         4178      0.05%    100.00% # Class of committed instruction
system.cpu0.commit.op_class_0::FloatMemWrite            0      0.00%    100.00% # Class of committed instruction
system.cpu0.commit.op_class_0::IprAccess            0      0.00%    100.00% # Class of committed instruction
system.cpu0.commit.op_class_0::InstPrefetch            0      0.00%    100.00% # Class of committed instruction
system.cpu0.commit.op_class_0::total          7864695                       # Class of committed instruction
system.cpu0.commit.bw_lim_events               135777                       # number cycles where commit BW limit reached
system.cpu0.rob.rob_reads                    47893121                       # The number of ROB reads
system.cpu0.rob.rob_writes                   39721611                       # The number of ROB writes
system.cpu0.timesIdled                            281                       # Number of times that the entire CPU went into an idle state and unscheduled itself
system.cpu0.idleCycles                          11791                       # Total number of cycles that the CPU has spent unscheduled due to idling
system.cpu0.committedInsts                    3934690                       # Number of Instructions Simulated
system.cpu0.committedOps                      7864695                       # Number of Ops (including micro ops) Simulated
system.cpu0.cpi                              7.760380                       # CPI: Cycles Per Instruction
system.cpu0.cpi_total                        7.760380                       # CPI: Total CPI of All Threads
system.cpu0.ipc                              0.128860                       # IPC: Instructions Per Cycle
system.cpu0.ipc_total                        0.128860                       # IPC: Total IPC of All Threads
system.cpu0.int_regfile_reads                13648589                       # number of integer regfile reads
system.cpu0.int_regfile_writes               11529512                       # number of integer regfile writes
system.cpu0.fp_regfile_reads                    69124                       # number of floating regfile reads
system.cpu0.fp_regfile_writes                   34509                       # number of floating regfile writes
system.cpu0.cc_regfile_reads                  9129498                       # number of cc regfile reads
system.cpu0.cc_regfile_writes                 3806194                       # number of cc regfile writes
system.cpu0.misc_regfile_reads                7278648                       # number of misc regfile reads
system.cpu0.dcache.tags.pwrStateResidencyTicks::UNDEFINED  15267344125                       # Cumulative time (in ticks) in various power states
system.cpu0.dcache.tags.replacements           795137                       # number of replacements
system.cpu0.dcache.tags.tagsinuse                 512                       # Cycle average of tags in use
system.cpu0.dcache.tags.total_refs             826554                       # Total number of references to valid blocks.
system.cpu0.dcache.tags.sampled_refs           795137                       # Sample count of references to valid blocks.
system.cpu0.dcache.tags.avg_refs             1.039511                       # Average number of references to valid blocks.
system.cpu0.dcache.tags.warmup_cycle                0                       # Cycle when the warmup percentage was hit.
system.cpu0.dcache.tags.occ_blocks::cpu0.data          512                       # Average occupied blocks per requestor
system.cpu0.dcache.tags.occ_percent::cpu0.data            1                       # Average percentage of cache occupancy
system.cpu0.dcache.tags.occ_percent::total            1                       # Average percentage of cache occupancy
system.cpu0.dcache.tags.occ_task_id_blocks::1024          512                       # Occupied blocks per task id
system.cpu0.dcache.tags.age_task_id_blocks_1024::0          476                       # Occupied blocks per task id
system.cpu0.dcache.tags.age_task_id_blocks_1024::1           36                       # Occupied blocks per task id
system.cpu0.dcache.tags.occ_task_id_percent::1024            1                       # Percentage of cache occupancy per task id
system.cpu0.dcache.tags.tag_accesses          9448257                       # Number of tag accesses
system.cpu0.dcache.tags.data_accesses         9448257                       # Number of data accesses
system.cpu0.dcache.pwrStateResidencyTicks::UNDEFINED  15267344125                       # Cumulative time (in ticks) in various power states
system.cpu0.dcache.ReadReq_hits::cpu0.data       759465                       # number of ReadReq hits
system.cpu0.dcache.ReadReq_hits::total         759465                       # number of ReadReq hits
system.cpu0.dcache.WriteReq_hits::cpu0.data        67788                       # number of WriteReq hits
system.cpu0.dcache.WriteReq_hits::total         67788                       # number of WriteReq hits
system.cpu0.dcache.demand_hits::cpu0.data       827253                       # number of demand (read+write) hits
system.cpu0.dcache.demand_hits::total          827253                       # number of demand (read+write) hits
system.cpu0.dcache.overall_hits::cpu0.data       827253                       # number of overall hits
system.cpu0.dcache.overall_hits::total         827253                       # number of overall hits
system.cpu0.dcache.ReadReq_misses::cpu0.data      1332848                       # number of ReadReq misses
system.cpu0.dcache.ReadReq_misses::total      1332848                       # number of ReadReq misses
system.cpu0.dcache.WriteReq_misses::cpu0.data         3179                       # number of WriteReq misses
system.cpu0.dcache.WriteReq_misses::total         3179                       # number of WriteReq misses
system.cpu0.dcache.demand_misses::cpu0.data      1336027                       # number of demand (read+write) misses
system.cpu0.dcache.demand_misses::total       1336027                       # number of demand (read+write) misses
system.cpu0.dcache.overall_misses::cpu0.data      1336027                       # number of overall misses
system.cpu0.dcache.overall_misses::total      1336027                       # number of overall misses
system.cpu0.dcache.ReadReq_miss_latency::cpu0.data  31230491000                       # number of ReadReq miss cycles
system.cpu0.dcache.ReadReq_miss_latency::total  31230491000                       # number of ReadReq miss cycles
system.cpu0.dcache.WriteReq_miss_latency::cpu0.data    132754991                       # number of WriteReq miss cycles
system.cpu0.dcache.WriteReq_miss_latency::total    132754991                       # number of WriteReq miss cycles
system.cpu0.dcache.demand_miss_latency::cpu0.data  31363245991                       # number of demand (read+write) miss cycles
system.cpu0.dcache.demand_miss_latency::total  31363245991                       # number of demand (read+write) miss cycles
system.cpu0.dcache.overall_miss_latency::cpu0.data  31363245991                       # number of overall miss cycles
system.cpu0.dcache.overall_miss_latency::total  31363245991                       # number of overall miss cycles
system.cpu0.dcache.ReadReq_accesses::cpu0.data      2092313                       # number of ReadReq accesses(hits+misses)
system.cpu0.dcache.ReadReq_accesses::total      2092313                       # number of ReadReq accesses(hits+misses)
system.cpu0.dcache.WriteReq_accesses::cpu0.data        70967                       # number of WriteReq accesses(hits+misses)
system.cpu0.dcache.WriteReq_accesses::total        70967                       # number of WriteReq accesses(hits+misses)
system.cpu0.dcache.demand_accesses::cpu0.data      2163280                       # number of demand (read+write) accesses
system.cpu0.dcache.demand_accesses::total      2163280                       # number of demand (read+write) accesses
system.cpu0.dcache.overall_accesses::cpu0.data      2163280                       # number of overall (read+write) accesses
[...]
system.l2.demand_miss_rate::cpu0.data        0.108287                       # miss rate for demand accesses
system.l2.demand_miss_rate::total            0.108293                       # miss rate for demand accesses
system.l2.overall_miss_rate::cpu0.inst       0.600000                       # miss rate for overall accesses
system.l2.overall_miss_rate::cpu0.data       0.108287                       # miss rate for overall accesses
system.l2.overall_miss_rate::total           0.108293                       # miss rate for overall accesses
system.l2.ReadExReq_avg_miss_latency::cpu0.data 146015.765766                       # average ReadExReq miss latency
system.l2.ReadExReq_avg_miss_latency::total 146015.765766                       # average ReadExReq miss latency
system.l2.ReadCleanReq_avg_miss_latency::cpu0.inst 94833.333333                       # average ReadCleanReq miss latency
system.l2.ReadCleanReq_avg_miss_latency::total 94833.333333                       # average ReadCleanReq miss latency
system.l2.ReadSharedReq_avg_miss_latency::cpu0.data 98856.285918                       # average ReadSharedReq miss latency
system.l2.ReadSharedReq_avg_miss_latency::total 98856.285918                       # average ReadSharedReq miss latency
system.l2.demand_avg_miss_latency::cpu0.inst 94833.333333                       # average overall miss latency
system.l2.demand_avg_miss_latency::cpu0.data 99221.060823                       # average overall miss latency
system.l2.demand_avg_miss_latency::total 99220.755089                       # average overall miss latency
system.l2.overall_avg_miss_latency::cpu0.inst 94833.333333                       # average overall miss latency
system.l2.overall_avg_miss_latency::cpu0.data 99221.060823                       # average overall miss latency
system.l2.overall_avg_miss_latency::total 99220.755089                       # average overall miss latency
system.l2.blocked_cycles::no_mshrs                  0                       # number of cycles access was blocked
system.l2.blocked_cycles::no_targets                0                       # number of cycles access was blocked
system.l2.blocked::no_mshrs                         0                       # number of cycles access was blocked
system.l2.blocked::no_targets                       0                       # number of cycles access was blocked
system.l2.avg_blocked_cycles::no_mshrs            nan                       # average number of cycles each access was blocked
system.l2.avg_blocked_cycles::no_targets          nan                       # average number of cycles each access was blocked
system.l2.writebacks::writebacks                 2350                       # number of writebacks
system.l2.writebacks::total                      2350                       # number of writebacks
system.l2.ReadExReq_mshr_misses::cpu0.data          666                       # number of ReadExReq MSHR misses
system.l2.ReadExReq_mshr_misses::total            666                       # number of ReadExReq MSHR misses
system.l2.ReadCleanReq_mshr_misses::cpu0.inst            6                       # number of ReadCleanReq MSHR misses
system.l2.ReadCleanReq_mshr_misses::total            6                       # number of ReadCleanReq MSHR misses
system.l2.ReadSharedReq_mshr_misses::cpu0.data        85437                       # number of ReadSharedReq MSHR misses
system.l2.ReadSharedReq_mshr_misses::total        85437                       # number of ReadSharedReq MSHR misses
system.l2.demand_mshr_misses::cpu0.inst             6                       # number of demand (read+write) MSHR misses
system.l2.demand_mshr_misses::cpu0.data         86103                       # number of demand (read+write) MSHR misses
system.l2.demand_mshr_misses::total             86109                       # number of demand (read+write) MSHR misses
system.l2.overall_mshr_misses::cpu0.inst            6                       # number of overall MSHR misses
system.l2.overall_mshr_misses::cpu0.data        86103                       # number of overall MSHR misses
system.l2.overall_mshr_misses::total            86109                       # number of overall MSHR misses
system.l2.ReadExReq_mshr_miss_latency::cpu0.data     90586500                       # number of ReadExReq MSHR miss cycles
system.l2.ReadExReq_mshr_miss_latency::total     90586500                       # number of ReadExReq MSHR miss cycles
system.l2.ReadCleanReq_mshr_miss_latency::cpu0.inst       509000                       # number of ReadCleanReq MSHR miss cycles
system.l2.ReadCleanReq_mshr_miss_latency::total       509000                       # number of ReadCleanReq MSHR miss cycles
system.l2.ReadSharedReq_mshr_miss_latency::cpu0.data   7591604500                       # number of ReadSharedReq MSHR miss cycles
system.l2.ReadSharedReq_mshr_miss_latency::total   7591604500                       # number of ReadSharedReq MSHR miss cycles
system.l2.demand_mshr_miss_latency::cpu0.inst       509000                       # number of demand (read+write) MSHR miss cycles
system.l2.demand_mshr_miss_latency::cpu0.data   7682191000                       # number of demand (read+write) MSHR miss cycles
system.l2.demand_mshr_miss_latency::total   7682700000                       # number of demand (read+write) MSHR miss cycles
system.l2.overall_mshr_miss_latency::cpu0.inst       509000                       # number of overall MSHR miss cycles
system.l2.overall_mshr_miss_latency::cpu0.data   7682191000                       # number of overall MSHR miss cycles
system.l2.overall_mshr_miss_latency::total   7682700000                       # number of overall MSHR miss cycles
system.l2.ReadExReq_mshr_miss_rate::cpu0.data     0.210360                       # mshr miss rate for ReadExReq accesses
system.l2.ReadExReq_mshr_miss_rate::total     0.210360                       # mshr miss rate for ReadExReq accesses
system.l2.ReadCleanReq_mshr_miss_rate::cpu0.inst     0.600000                       # mshr miss rate for ReadCleanReq accesses
system.l2.ReadCleanReq_mshr_miss_rate::total     0.600000                       # mshr miss rate for ReadCleanReq accesses
system.l2.ReadSharedReq_mshr_miss_rate::cpu0.data     0.107879                       # mshr miss rate for ReadSharedReq accesses
system.l2.ReadSharedReq_mshr_miss_rate::total     0.107879                       # mshr miss rate for ReadSharedReq accesses
system.l2.demand_mshr_miss_rate::cpu0.inst     0.600000                       # mshr miss rate for demand accesses
system.l2.demand_mshr_miss_rate::cpu0.data     0.108287                       # mshr miss rate for demand accesses
system.l2.demand_mshr_miss_rate::total       0.108293                       # mshr miss rate for demand accesses
system.l2.overall_mshr_miss_rate::cpu0.inst     0.600000                       # mshr miss rate for overall accesses
system.l2.overall_mshr_miss_rate::cpu0.data     0.108287                       # mshr miss rate for overall accesses
system.l2.overall_mshr_miss_rate::total      0.108293                       # mshr miss rate for overall accesses
system.l2.ReadExReq_avg_mshr_miss_latency::cpu0.data 136015.765766                       # average ReadExReq mshr miss latency
system.l2.ReadExReq_avg_mshr_miss_latency::total 136015.765766                       # average ReadExReq mshr miss latency
system.l2.ReadCleanReq_avg_mshr_miss_latency::cpu0.inst 84833.333333                       # average ReadCleanReq mshr miss latency
system.l2.ReadCleanReq_avg_mshr_miss_latency::total 84833.333333                       # average ReadCleanReq mshr miss latency
system.l2.ReadSharedReq_avg_mshr_miss_latency::cpu0.data 88856.168873                       # average ReadSharedReq mshr miss latency
system.l2.ReadSharedReq_avg_mshr_miss_latency::total 88856.168873                       # average ReadSharedReq mshr miss latency
system.l2.demand_avg_mshr_miss_latency::cpu0.inst 84833.333333                       # average overall mshr miss latency
system.l2.demand_avg_mshr_miss_latency::cpu0.data 89220.944683                       # average overall mshr miss latency
system.l2.demand_avg_mshr_miss_latency::total 89220.638958                       # average overall mshr miss latency
system.l2.overall_avg_mshr_miss_latency::cpu0.inst 84833.333333                       # average overall mshr miss latency
system.l2.overall_avg_mshr_miss_latency::cpu0.data 89220.944683                       # average overall mshr miss latency
system.l2.overall_avg_mshr_miss_latency::total 89220.638958                       # average overall mshr miss latency
system.membus.snoop_filter.tot_requests        172217                       # Total number of requests made to the snoop filter.
system.membus.snoop_filter.hit_single_requests        86111                       # Number of requests hitting in the snoop filter with a single holder of the requested data.
system.membus.snoop_filter.hit_multi_requests            0                       # Number of requests hitting in the snoop filter with multiple (>1) holders of the requested data.
system.membus.snoop_filter.tot_snoops               0                       # Total number of snoops made to the snoop filter.
system.membus.snoop_filter.hit_single_snoops            0                       # Number of snoops hitting in the snoop filter with a single holder of the requested data.
system.membus.snoop_filter.hit_multi_snoops            0                       # Number of snoops hitting in the snoop filter with multiple (>1) holders of the requested data.
system.membus.pwrStateResidencyTicks::UNDEFINED  15267344125                       # Cumulative time (in ticks) in various power states
system.membus.trans_dist::ReadResp              85444                       # Transaction distribution
system.membus.trans_dist::WritebackDirty         2350                       # Transaction distribution
system.membus.trans_dist::CleanEvict            83758                       # Transaction distribution
system.membus.trans_dist::ReadExReq               666                       # Transaction distribution
system.membus.trans_dist::ReadExResp              666                       # Transaction distribution
system.membus.trans_dist::ReadSharedReq         85443                       # Transaction distribution
system.membus.pkt_count_system.l2.mem_side::system.mem_ctrls.port       258327                       # Packet count per connected master and slave (bytes)
system.membus.pkt_count_system.l2.mem_side::total       258327                       # Packet count per connected master and slave (bytes)
system.membus.pkt_count::total                 258327                       # Packet count per connected master and slave (bytes)
system.membus.pkt_size_system.l2.mem_side::system.mem_ctrls.port      5661440                       # Cumulative packet size per connected master and slave (bytes)
system.membus.pkt_size_system.l2.mem_side::total      5661440                       # Cumulative packet size per connected master and slave (bytes)
system.membus.pkt_size::total                 5661440                       # Cumulative packet size per connected master and slave (bytes)
system.membus.snoops                                0                       # Total snoops (count)
system.membus.snoopTraffic                          0                       # Total snoop traffic (bytes)
system.membus.snoop_fanout::samples             86109                       # Request fanout histogram
system.membus.snoop_fanout::mean                    0                       # Request fanout histogram
system.membus.snoop_fanout::stdev                   0                       # Request fanout histogram
system.membus.snoop_fanout::underflows              0      0.00%      0.00% # Request fanout histogram
system.membus.snoop_fanout::0                   86109    100.00%    100.00% # Request fanout histogram
system.membus.snoop_fanout::1                       0      0.00%    100.00% # Request fanout histogram
system.membus.snoop_fanout::overflows               0      0.00%    100.00% # Request fanout histogram
system.membus.snoop_fanout::min_value               0                       # Request fanout histogram
system.membus.snoop_fanout::max_value               0                       # Request fanout histogram
system.membus.snoop_fanout::total               86109                       # Request fanout histogram
system.membus.reqLayer12.occupancy          206837000                       # Layer occupancy (ticks)
system.membus.reqLayer12.utilization              1.4                       # Layer utilization (%)
system.membus.respLayer1.occupancy          473787250                       # Layer occupancy (ticks)
system.membus.respLayer1.utilization              3.1                       # Layer utilization (%)
system.tol2bus.snoop_filter.tot_requests      1590292                       # Total number of requests made to the snoop filter.
system.tol2bus.snoop_filter.hit_single_requests       795146                       # Number of requests hitting in the snoop filter with a single holder of the requested data.
system.tol2bus.snoop_filter.hit_multi_requests         1701                       # Number of requests hitting in the snoop filter with multiple (>1) holders of the requested data.
system.tol2bus.snoop_filter.tot_snoops              9                       # Total number of snoops made to the snoop filter.
system.tol2bus.snoop_filter.hit_single_snoops            9                       # Number of snoops hitting in the snoop filter with a single holder of the requested data.
system.tol2bus.snoop_filter.hit_multi_snoops            0                       # Number of snoops hitting in the snoop filter with multiple (>1) holders of the requested data.
system.tol2bus.pwrStateResidencyTicks::UNDEFINED  15267344125                       # Cumulative time (in ticks) in various power states
system.tol2bus.trans_dist::ReadResp            791981                       # Transaction distribution
system.tol2bus.trans_dist::WritebackDirty        69203                       # Transaction distribution
system.tol2bus.trans_dist::WritebackClean           10                       # Transaction distribution
system.tol2bus.trans_dist::CleanEvict          812050                       # Transaction distribution
system.tol2bus.trans_dist::ReadExReq             3166                       # Transaction distribution
system.tol2bus.trans_dist::ReadExResp            3166                       # Transaction distribution
system.tol2bus.trans_dist::ReadCleanReq            10                       # Transaction distribution
system.tol2bus.trans_dist::ReadSharedReq       791970                       # Transaction distribution
system.tol2bus.pkt_count_system.cpu0.icache.mem_side::system.l2.cpu_side           30                       # Packet count per connected master and slave (bytes)
system.tol2bus.pkt_count_system.cpu0.dcache.mem_side::system.l2.cpu_side      2385409                       # Packet count per connected master and slave (bytes)
system.tol2bus.pkt_count::total               2385439                       # Packet count per connected master and slave (bytes)
system.tol2bus.pkt_size_system.cpu0.icache.mem_side::system.l2.cpu_side         1280                       # Cumulative packet size per connected master and slave (bytes)
system.tol2bus.pkt_size_system.cpu0.dcache.mem_side::system.l2.cpu_side     55167360                       # Cumulative packet size per connected master and slave (bytes)
system.tol2bus.pkt_size::total               55168640                       # Cumulative packet size per connected master and slave (bytes)
system.tol2bus.snoops                           86117                       # Total snoops (count)
system.tol2bus.snoopTraffic                    150400                       # Total snoop traffic (bytes)
system.tol2bus.snoop_fanout::samples           881263                       # Request fanout histogram
system.tol2bus.snoop_fanout::mean            0.001940                       # Request fanout histogram
system.tol2bus.snoop_fanout::stdev           0.044007                       # Request fanout histogram
system.tol2bus.snoop_fanout::underflows             0      0.00%      0.00% # Request fanout histogram
system.tol2bus.snoop_fanout::0                 879553     99.81%     99.81% # Request fanout histogram
system.tol2bus.snoop_fanout::1                   1710      0.19%    100.00% # Request fanout histogram
system.tol2bus.snoop_fanout::2                      0      0.00%    100.00% # Request fanout histogram
system.tol2bus.snoop_fanout::3                      0      0.00%    100.00% # Request fanout histogram
system.tol2bus.snoop_fanout::4                      0      0.00%    100.00% # Request fanout histogram
system.tol2bus.snoop_fanout::5                      0      0.00%    100.00% # Request fanout histogram
system.tol2bus.snoop_fanout::6                      0      0.00%    100.00% # Request fanout histogram
system.tol2bus.snoop_fanout::7                      0      0.00%    100.00% # Request fanout histogram
system.tol2bus.snoop_fanout::8                      0      0.00%    100.00% # Request fanout histogram
system.tol2bus.snoop_fanout::9                      0      0.00%    100.00% # Request fanout histogram
system.tol2bus.snoop_fanout::10                     0      0.00%    100.00% # Request fanout histogram
system.tol2bus.snoop_fanout::11                     0      0.00%    100.00% # Request fanout histogram
system.tol2bus.snoop_fanout::12                     0      0.00%    100.00% # Request fanout histogram
system.tol2bus.snoop_fanout::13                     0      0.00%    100.00% # Request fanout histogram
system.tol2bus.snoop_fanout::14                     0      0.00%    100.00% # Request fanout histogram
system.tol2bus.snoop_fanout::15                     0      0.00%    100.00% # Request fanout histogram
system.tol2bus.snoop_fanout::16                     0      0.00%    100.00% # Request fanout histogram
system.tol2bus.snoop_fanout::17                     0      0.00%    100.00% # Request fanout histogram
system.tol2bus.snoop_fanout::18                     0      0.00%    100.00% # Request fanout histogram
system.tol2bus.snoop_fanout::19                     0      0.00%    100.00% # Request fanout histogram
system.tol2bus.snoop_fanout::20                     0      0.00%    100.00% # Request fanout histogram
system.tol2bus.snoop_fanout::21                     0      0.00%    100.00% # Request fanout histogram
system.tol2bus.snoop_fanout::22                     0      0.00%    100.00% # Request fanout histogram
system.tol2bus.snoop_fanout::23                     0      0.00%    100.00% # Request fanout histogram
system.tol2bus.snoop_fanout::24                     0      0.00%    100.00% # Request fanout histogram
system.tol2bus.snoop_fanout::overflows              0      0.00%    100.00% # Request fanout histogram
system.tol2bus.snoop_fanout::min_value              0                       # Request fanout histogram
system.tol2bus.snoop_fanout::max_value              1                       # Request fanout histogram
system.tol2bus.snoop_fanout::total             881263                       # Request fanout histogram
system.tol2bus.reqLayer0.occupancy          862009000                       # Layer occupancy (ticks)
system.tol2bus.reqLayer0.utilization              5.6                       # Layer utilization (%)
system.tol2bus.respLayer0.occupancy             15000                       # Layer occupancy (ticks)
system.tol2bus.respLayer0.utilization             0.0                       # Layer utilization (%)
system.tol2bus.respLayer1.occupancy        1192705500                       # Layer occupancy (ticks)
system.tol2bus.respLayer1.utilization             7.8                       # Layer utilization (%)

---------- End Simulation Statistics   ----------
