
---------- Begin Simulation Statistics ----------
sim_seconds                                  0.015267                       # Number of seconds simulated
sim_ticks                                 15267344125                       # Number of ticks simulated
final_tick                               1664140509625                       # Number of ticks from beginning of simulation (restored from checkpoints and never reset)
sim_freq                                 1000000000000                       # Frequency of simulated ticks
host_inst_rate                               20011895                       # Simulator instruction rate (inst/s)
host_op_rate                                 36434203                       # Simulator op (including micro ops) rate (op/s)
host_tick_rate                               81041527                       # Simulator tick rate (ticks/s)
host_mem_usage                                3428856                       # Number of bytes of host memory used
host_seconds                                   188.39                       # Real time elapsed on the host
sim_insts                                  3770023571                       # Number of instructions simulated
sim_ops                                    6863808226                       # Number of ops (including micro ops) simulated
system.voltage_domain.voltage                       1                       # Voltage in Volts
system.clk_domain.clock                          1000                       # Clock period in ticks
system.mem_ctrls.pwrStateResidencyTicks::UNDEFINED  15267344125                       # Cumulative time (in ticks) in various power states
system.mem_ctrls.bytes_read::cpu0.inst          12736                       # Number of bytes read from this memory
system.mem_ctrls.bytes_read::cpu0.data        5730048                       # Number of bytes read from this memory
system.mem_ctrls.bytes_read::total            5742784                       # Number of bytes read from this memory
system.mem_ctrls.bytes_inst_read::cpu0.inst        12736                       # Number of instructions bytes read from this memory
system.mem_ctrls.bytes_inst_read::total         12736                       # Number of instructions bytes read from this memory
system.mem_ctrls.num_reads::cpu0.inst             199                       # Number of read requests responded to by this memory
system.mem_ctrls.num_reads::cpu0.data           89532                       # Number of read requests responded to by this memory
system.mem_ctrls.num_reads::total               89731                       # Number of read requests responded to by this memory
system.mem_ctrls.bw_read::cpu0.inst            834199                       # Total read bandwidth from this memory (bytes/s)
system.mem_ctrls.bw_read::cpu0.data         375314000                       # Total read bandwidth from this memory (bytes/s)
system.mem_ctrls.bw_read::total             376148199                       # Total read bandwidth from this memory (bytes/s)
system.mem_ctrls.bw_inst_read::cpu0.inst       834199                       # Instruction read bandwidth from this memory (bytes/s)
system.mem_ctrls.bw_inst_read::total           834199                       # Instruction read bandwidth from this memory (bytes/s)
system.mem_ctrls.bw_total::cpu0.inst           834199                       # Total bandwidth to/from this memory (bytes/s)
system.mem_ctrls.bw_total::cpu0.data        375314000                       # Total bandwidth to/from this memory (bytes/s)
system.mem_ctrls.bw_total::total            376148199                       # Total bandwidth to/from this memory (bytes/s)
system.mem_ctrls.readReqs                       89730                       # Number of read requests accepted
system.mem_ctrls.writeReqs                          0                       # Number of write requests accepted
system.mem_ctrls.readBursts                     89730                       # Number of DRAM read bursts, including those serviced by the write queue
system.mem_ctrls.writeBursts                        0                       # Number of DRAM write bursts, including those merged in the write queue
system.mem_ctrls.bytesReadDRAM                5740800                       # Total number of bytes read from DRAM
system.mem_ctrls.bytesReadWrQ                    1920                       # Total number of bytes read from write queue
system.mem_ctrls.bytesWritten                       0                       # Total number of bytes written to DRAM
system.mem_ctrls.bytesReadSys                 5742720                       # Total read bytes from the system interface side
system.mem_ctrls.bytesWrittenSys                    0                       # Total written bytes from the system interface side
system.mem_ctrls.servicedByWrQ                     30                       # Number of DRAM read bursts serviced by the write queue
system.mem_ctrls.mergedWrBursts                     0                       # Number of DRAM write bursts merged with an existing one
system.mem_ctrls.neitherReadNorWriteReqs            0                       # Number of requests that are neither read nor write
system.mem_ctrls.perBankRdBursts::0              5436                       # Per bank write bursts
system.mem_ctrls.perBankRdBursts::1              5387                       # Per bank write bursts
system.mem_ctrls.perBankRdBursts::2              5392                       # Per bank write bursts
system.mem_ctrls.perBankRdBursts::3              5484                       # Per bank write bursts
system.mem_ctrls.perBankRdBursts::4              5666                       # Per bank write bursts
system.mem_ctrls.perBankRdBursts::5              5774                       # Per bank write bursts
system.mem_ctrls.perBankRdBursts::6              5794                       # Per bank write bursts
system.mem_ctrls.perBankRdBursts::7              5796                       # Per bank write bursts
system.mem_ctrls.perBankRdBursts::8              5713                       # Per bank write bursts
system.mem_ctrls.perBankRdBursts::9              5746                       # Per bank write bursts
system.mem_ctrls.perBankRdBursts::10             5763                       # Per bank write bursts
system.mem_ctrls.perBankRdBursts::11             5753                       # Per bank write bursts
system.mem_ctrls.perBankRdBursts::12             5705                       # Per bank write bursts
system.mem_ctrls.perBankRdBursts::13             5507                       # Per bank write bursts
system.mem_ctrls.perBankRdBursts::14             5403                       # Per bank write bursts
system.mem_ctrls.perBankRdBursts::15             5381                       # Per bank write bursts
system.mem_ctrls.perBankWrBursts::0                 0                       # Per bank write bursts
system.mem_ctrls.perBankWrBursts::1                 0                       # Per bank write bursts
system.mem_ctrls.perBankWrBursts::2                 0                       # Per bank write bursts
system.mem_ctrls.perBankWrBursts::3                 0                       # Per bank write bursts
system.mem_ctrls.perBankWrBursts::4                 0                       # Per bank write bursts
system.mem_ctrls.perBankWrBursts::5                 0                       # Per bank write bursts
system.mem_ctrls.perBankWrBursts::6                 0                       # Per bank write bursts
system.mem_ctrls.perBankWrBursts::7                 0                       # Per bank write bursts
system.mem_ctrls.perBankWrBursts::8                 0                       # Per bank write bursts
system.mem_ctrls.perBankWrBursts::9                 0                       # Per bank write bursts
system.mem_ctrls.perBankWrBursts::10                0                       # Per bank write bursts
system.mem_ctrls.perBankWrBursts::11                0                       # Per bank write bursts
system.mem_ctrls.perBankWrBursts::12                0                       # Per bank write bursts
system.mem_ctrls.perBankWrBursts::13                0                       # Per bank write bursts
system.mem_ctrls.perBankWrBursts::14                0                       # Per bank write bursts
system.mem_ctrls.perBankWrBursts::15                0                       # Per bank write bursts
system.mem_ctrls.numRdRetry                         0                       # Number of times read queue was full causing retry
system.mem_ctrls.numWrRetry                         0                       # Number of times write queue was full causing retry
system.mem_ctrls.totGap                   15266879000                       # Total gap between requests
system.mem_ctrls.readPktSize::0                     0                       # Read request sizes (log2)
system.mem_ctrls.readPktSize::1                     0                       # Read request sizes (log2)
system.mem_ctrls.readPktSize::2                     0                       # Read request sizes (log2)
system.mem_ctrls.readPktSize::3                     0                       # Read request sizes (log2)
system.mem_ctrls.readPktSize::4                     0                       # Read request sizes (log2)
system.mem_ctrls.readPktSize::5                     0                       # Read request sizes (log2)
system.mem_ctrls.readPktSize::6                 89730                       # Read request sizes (log2)
system.mem_ctrls.writePktSize::0                    0                       # Write request sizes (log2)
system.mem_ctrls.writePktSize::1                    0                       # Write request sizes (log2)
system.mem_ctrls.writePktSize::2                    0                       # Write request sizes (log2)
system.mem_ctrls.writePktSize::3                    0                       # Write request sizes (log2)
system.mem_ctrls.writePktSize::4                    0                       # Write request sizes (log2)
system.mem_ctrls.writePktSize::5                    0                       # Write request sizes (log2)
system.mem_ctrls.writePktSize::6                    0                       # Write request sizes (log2)
system.mem_ctrls.rdQLenPdf::0                   55523                       # What read queue length does an incoming req see
system.mem_ctrls.rdQLenPdf::1                   34093                       # What read queue length does an incoming req see
system.mem_ctrls.rdQLenPdf::2                      59                       # What read queue length does an incoming req see
system.mem_ctrls.rdQLenPdf::3                      19                       # What read queue length does an incoming req see
system.mem_ctrls.rdQLenPdf::4                       6                       # What read queue length does an incoming req see
system.mem_ctrls.rdQLenPdf::5                       0                       # What read queue length does an incoming req see
system.mem_ctrls.rdQLenPdf::6                       0                       # What read queue length does an incoming req see
system.mem_ctrls.rdQLenPdf::7                       0                       # What read queue length does an incoming req see
system.mem_ctrls.rdQLenPdf::8                       0                       # What read queue length does an incoming req see
system.mem_ctrls.rdQLenPdf::9                       0                       # What read queue length does an incoming req see
system.mem_ctrls.rdQLenPdf::10                      0                       # What read queue length does an incoming req see
system.mem_ctrls.rdQLenPdf::11                      0                       # What read queue length does an incoming req see
system.mem_ctrls.rdQLenPdf::12                      0                       # What read queue length does an incoming req see
system.mem_ctrls.rdQLenPdf::13                      0                       # What read queue length does an incoming req see
system.mem_ctrls.rdQLenPdf::14                      0                       # What read queue length does an incoming req see
system.mem_ctrls.rdQLenPdf::15                      0                       # What read queue length does an incoming req see
system.mem_ctrls.rdQLenPdf::16                      0                       # What read queue length does an incoming req see
system.mem_ctrls.rdQLenPdf::17                      0                       # What read queue length does an incoming req see
system.mem_ctrls.rdQLenPdf::18                      0                       # What read queue length does an incoming req see
system.mem_ctrls.rdQLenPdf::19                      0                       # What read queue length does an incoming req see
system.mem_ctrls.rdQLenPdf::20                      0                       # What read queue length does an incoming req see
system.mem_ctrls.rdQLenPdf::21                      0                       # What read queue length does an incoming req see
system.mem_ctrls.rdQLenPdf::22                      0                       # What read queue length does an incoming req see
system.mem_ctrls.rdQLenPdf::23                      0                       # What read queue length does an incoming req see
system.mem_ctrls.rdQLenPdf::24                      0                       # What read queue length does an incoming req see
system.mem_ctrls.rdQLenPdf::25                      0                       # What read queue length does an incoming req see
system.mem_ctrls.rdQLenPdf::26                      0                       # What read queue length does an incoming req see
system.mem_ctrls.rdQLenPdf::27                      0                       # What read queue length does an incoming req see
system.mem_ctrls.rdQLenPdf::28                      0                       # What read queue length does an incoming req see
system.mem_ctrls.rdQLenPdf::29                      0                       # What read queue length does an incoming req see
system.mem_ctrls.rdQLenPdf::30                      0                       # What read queue length does an incoming req see
system.mem_ctrls.rdQLenPdf::31                      0                       # What read queue length does an incoming req see
system.mem_ctrls.wrQLenPdf::0                       0                       # What write queue length does an incoming req see
system.mem_ctrls.wrQLenPdf::1                       0                       # What write queue length does an incoming req see
system.mem_ctrls.wrQLenPdf::2                       0                       # What write queue length does an incoming req see
system.mem_ctrls.wrQLenPdf::3                       0                       # What write queue length does an incoming req see
system.mem_ctrls.wrQLenPdf::4                       0                       # What write queue length does an incoming req see
system.mem_ctrls.wrQLenPdf::5                       0                       # What write queue length does an incoming req see
system.mem_ctrls.wrQLenPdf::6                       0                       # What write queue length does an incoming req see
system.mem_ctrls.wrQLenPdf::7                       0                       # What write queue length does an incoming req see
system.mem_ctrls.wrQLenPdf::8                       0                       # What write queue length does an incoming req see
system.mem_ctrls.wrQLenPdf::9                       0                       # What write queue length does an incoming req see
system.mem_ctrls.wrQLenPdf::10                      0                       # What write queue length does an incoming req see
system.mem_ctrls.wrQLenPdf::11                      0                       # What write queue length does an incoming req see
system.mem_ctrls.wrQLenPdf::12                      0                       # What write queue length does an incoming req see
system.mem_ctrls.wrQLenPdf::13                      0                       # What write queue length does an incoming req see
system.mem_ctrls.wrQLenPdf::14                      0                       # What write queue length does an incoming req see
system.mem_ctrls.wrQLenPdf::15                      0                       # What write queue length does an incoming req see
system.mem_ctrls.wrQLenPdf::16                      0                       # What write queue length does an incoming req see
system.mem_ctrls.wrQLenPdf::17                      0                       # What write queue length does an incoming req see
system.mem_ctrls.wrQLenPdf::18                      0                       # What write queue length does an incoming req see
system.mem_ctrls.wrQLenPdf::19                      0                       # What write queue length does an incoming req see
system.mem_ctrls.wrQLenPdf::20                      0                       # What write queue length does an incoming req see
system.mem_ctrls.wrQLenPdf::21                      0                       # What write queue length does an incoming req see
system.mem_ctrls.wrQLenPdf::22                      0                       # What write queue length does an incoming req see
system.mem_ctrls.wrQLenPdf::23                      0                       # What write queue length does an incoming req see
system.mem_ctrls.wrQLenPdf::24                      0                       # What write queue length does an incoming req see
system.mem_ctrls.wrQLenPdf::25                      0                       # What write queue length does an incoming req see
system.mem_ctrls.wrQLenPdf::26                      0                       # What write queue length does an incoming req see
system.mem_ctrls.wrQLenPdf::27                      0                       # What write queue length does an incoming req see
system.mem_ctrls.wrQLenPdf::28                      0                       # What write queue length does an incoming req see
system.mem_ctrls.wrQLenPdf::29                      0                       # What write queue length does an incoming req see
system.mem_ctrls.wrQLenPdf::30                      0                       # What write queue length does an incoming req see
system.mem_ctrls.wrQLenPdf::31                      0                       # What write queue length does an incoming req see
system.mem_ctrls.wrQLenPdf::32                      0                       # What write queue length does an incoming req see
system.mem_ctrls.wrQLenPdf::33                      0                       # What write queue length does an incoming req see
system.mem_ctrls.wrQLenPdf::34                      0                       # What write queue length does an incoming req see
system.mem_ctrls.wrQLenPdf::35                      0                       # What write queue length does an incoming req see
system.mem_ctrls.wrQLenPdf::36                      0                       # What write queue length does an incoming req see
system.mem_ctrls.wrQLenPdf::37                      0                       # What write queue length does an incoming req see
system.mem_ctrls.wrQLenPdf::38                      0                       # What write queue length does an incoming req see
system.mem_ctrls.wrQLenPdf::39                      0                       # What write queue length does an incoming req see
system.mem_ctrls.wrQLenPdf::40                      0                       # What write queue length does an incoming req see
system.mem_ctrls.wrQLenPdf::41                      0                       # What write queue length does an incoming req see
system.mem_ctrls.wrQLenPdf::42                      0                       # What write queue length does an incoming req see
system.mem_ctrls.wrQLenPdf::43                      0                       # What write queue length does an incoming req see
system.mem_ctrls.wrQLenPdf::44                      0                       # What write queue length does an incoming req see
system.mem_ctrls.wrQLenPdf::45                      0                       # What write queue length does an incoming req see
system.mem_ctrls.wrQLenPdf::46                      0                       # What write queue length does an incoming req see
system.mem_ctrls.wrQLenPdf::47                      0                       # What write queue length does an incoming req see
system.mem_ctrls.wrQLenPdf::48                      0                       # What write queue length does an incoming req see
system.mem_ctrls.wrQLenPdf::49                      0                       # What write queue length does an incoming req see
system.mem_ctrls.wrQLenPdf::50                      0                       # What write queue length does an incoming req see
system.mem_ctrls.wrQLenPdf::51                      0                       # What write queue length does an incoming req see
system.mem_ctrls.wrQLenPdf::52                      0                       # What write queue length does an incoming req see
system.mem_ctrls.wrQLenPdf::53                      0                       # What write queue length does an incoming req see
system.mem_ctrls.wrQLenPdf::54                      0                       # What write queue length does an incoming req see
system.mem_ctrls.wrQLenPdf::55                      0                       # What write queue length does an incoming req see
system.mem_ctrls.wrQLenPdf::56                      0                       # What write queue length does an incoming req see
system.mem_ctrls.wrQLenPdf::57                      0                       # What write queue length does an incoming req see
system.mem_ctrls.wrQLenPdf::58                      0                       # What write queue length does an incoming req see
system.mem_ctrls.wrQLenPdf::59                      0                       # What write queue length does an incoming req see
system.mem_ctrls.wrQLenPdf::60                      0                       # What write queue length does an incoming req see
system.mem_ctrls.wrQLenPdf::61                      0                       # What write queue length does an incoming req see
system.mem_ctrls.wrQLenPdf::62                      0                       # What write queue length does an incoming req see
system.mem_ctrls.wrQLenPdf::63                      0                       # What write queue length does an incoming req see
system.mem_ctrls.bytesPerActivate::samples         7551                       # Bytes accessed per row activation
system.mem_ctrls.bytesPerActivate::mean    760.337968                       # Bytes accessed per row activation
system.mem_ctrls.bytesPerActivate::gmean   609.429609                       # Bytes accessed per row activation
system.mem_ctrls.bytesPerActivate::stdev   349.205640                       # Bytes accessed per row activation
system.mem_ctrls.bytesPerActivate::0-127          656      8.69%      8.69% # Bytes accessed per row activation
system.mem_ctrls.bytesPerActivate::128-255          111      1.47%     10.16% # Bytes accessed per row activation
system.mem_ctrls.bytesPerActivate::256-383          292      3.87%     14.02% # Bytes accessed per row activation
system.mem_ctrls.bytesPerActivate::384-511         1319     17.47%     31.49% # Bytes accessed per row activation
system.mem_ctrls.bytesPerActivate::512-639          392      5.19%     36.68% # Bytes accessed per row activation
system.mem_ctrls.bytesPerActivate::640-767            5      0.07%     36.75% # Bytes accessed per row activation
system.mem_ctrls.bytesPerActivate::768-895          206      2.73%     39.48% # Bytes accessed per row activation
system.mem_ctrls.bytesPerActivate::896-1023            5      0.07%     39.54% # Bytes accessed per row activation
system.mem_ctrls.bytesPerActivate::1024-1151         4565     60.46%    100.00% # Bytes accessed per row activation
system.mem_ctrls.bytesPerActivate::total         7551                       # Bytes accessed per row activation
system.mem_ctrls.totQLat                    952436750                       # Total ticks spent queuing
system.mem_ctrls.totMemAccLat              2634311750                       # Total ticks spent from burst creation until serviced by the DRAM
system.mem_ctrls.totBusLat                  448500000                       # Total ticks spent in databus transfers
system.mem_ctrls.avgQLat                     10618.02                       # Average queueing delay per DRAM burst
system.mem_ctrls.avgBusLat                    5000.00                       # Average bus latency per DRAM burst
system.mem_ctrls.avgMemAccLat                29368.02                       # Average memory access latency per DRAM burst
system.mem_ctrls.avgRdBW                       376.02                       # Average DRAM read bandwidth in MiByte/s
system.mem_ctrls.avgWrBW                         0.00                       # Average achieved write bandwidth in MiByte/s
system.mem_ctrls.avgRdBWSys                    376.14                       # Average system read bandwidth in MiByte/s
system.mem_ctrls.avgWrBWSys                      0.00                       # Average system write bandwidth in MiByte/s
system.mem_ctrls.peakBW                      12800.00                       # Theoretical peak bandwidth in MiByte/s
system.mem_ctrls.busUtil                         2.94                       # Data bus utilization in percentage
system.mem_ctrls.busUtilRead                     2.94                       # Data bus utilization in percentage for reads
system.mem_ctrls.busUtilWrite                    0.00                       # Data bus utilization in percentage for writes
system.mem_ctrls.avgRdQLen                       1.19                       # Average read queue length when enqueuing
system.mem_ctrls.avgWrQLen                      30.00                       # Average write queue length when enqueuing
system.mem_ctrls.readRowHits                    82149                       # Number of row buffer hits during reads
system.mem_ctrls.writeRowHits                       0                       # Number of row buffer hits during writes
system.mem_ctrls.readRowHitRate                 91.58                       # Row buffer hit rate for reads
system.mem_ctrls.writeRowHitRate                  nan                       # Row buffer hit rate for writes
system.mem_ctrls.avgGap                     170142.42                       # Average gap between requests
system.mem_ctrls.pageHitRate                    91.58                       # Row buffer hit rate, read and write combined
system.mem_ctrls_0.actEnergy                 25147080                       # Energy for activate commands per rank (pJ)
system.mem_ctrls_0.preEnergy                 13369785                       # Energy for precharge commands per rank (pJ)
system.mem_ctrls_0.readEnergy               319365060                       # Energy for read commands per rank (pJ)
system.mem_ctrls_0.writeEnergy                      0                       # Energy for write commands per rank (pJ)
system.mem_ctrls_0.refreshEnergy         681021120.000000                       # Energy for refresh commands per rank (pJ)
system.mem_ctrls_0.actBackEnergy            535880940                       # Energy for active background per rank (pJ)
system.mem_ctrls_0.preBackEnergy             30972000                       # Energy for precharge background per rank (pJ)
system.mem_ctrls_0.actPowerDownEnergy      2876383590                       # Energy for active power-down per rank (pJ)
system.mem_ctrls_0.prePowerDownEnergy       277319520                       # Energy for precharge power-down per rank (pJ)
system.mem_ctrls_0.selfRefreshEnergy       1702059120                       # Energy for self refresh per rank (pJ)
system.mem_ctrls_0.totalEnergy             6461518215                       # Total energy per rank (pJ)
system.mem_ctrls_0.averagePower            423.224771                       # Core power per rank (mW)
system.mem_ctrls_0.totalIdleTime          13457927000                       # Total Idle time Per DRAM Rank
system.mem_ctrls_0.memoryStateTime::IDLE     28206000                       # Time in different power states
system.mem_ctrls_0.memoryStateTime::REF     288368000                       # Time in different power states
system.mem_ctrls_0.memoryStateTime::SREF   6981464375                       # Time in different power states
system.mem_ctrls_0.memoryStateTime::PRE_PDN    722135250                       # Time in different power states
system.mem_ctrls_0.memoryStateTime::ACT     939398250                       # Time in different power states
system.mem_ctrls_0.memoryStateTime::ACT_PDN   6307772250                       # Time in different power states
system.mem_ctrls_1.actEnergy                 28767060                       # Energy for activate commands per rank (pJ)
system.mem_ctrls_1.preEnergy                 15286260                       # Energy for precharge commands per rank (pJ)
system.mem_ctrls_1.readEnergy               321092940                       # Energy for read commands per rank (pJ)
system.mem_ctrls_1.writeEnergy                      0                       # Energy for write commands per rank (pJ)
system.mem_ctrls_1.refreshEnergy         1130322960.000000                       # Energy for refresh commands per rank (pJ)
system.mem_ctrls_1.actBackEnergy            624594600                       # Energy for active background per rank (pJ)
system.mem_ctrls_1.preBackEnergy             62756160                       # Energy for precharge background per rank (pJ)
system.mem_ctrls_1.actPowerDownEnergy      3667124640                       # Energy for active power-down per rank (pJ)
system.mem_ctrls_1.prePowerDownEnergy       996378720                       # Energy for precharge power-down per rank (pJ)
system.mem_ctrls_1.selfRefreshEnergy        906866640                       # Energy for self refresh per rank (pJ)
system.mem_ctrls_1.totalEnergy             7753189980                       # Total energy per rank (pJ)
system.mem_ctrls_1.averagePower            507.828337                       # Core power per rank (mW)
system.mem_ctrls_1.totalIdleTime          13733931500                       # Total Idle time Per DRAM Rank
system.mem_ctrls_1.memoryStateTime::IDLE     95568000                       # Time in different power states
system.mem_ctrls_1.memoryStateTime::REF     479916000                       # Time in different power states
system.mem_ctrls_1.memoryStateTime::SREF   3097512750                       # Time in different power states
system.mem_ctrls_1.memoryStateTime::PRE_PDN   2594771250                       # Time in different power states
system.mem_ctrls_1.memoryStateTime::ACT     957471750                       # Time in different power states
system.mem_ctrls_1.memoryStateTime::ACT_PDN   8042104375                       # Time in different power states
system.pwrStateResidencyTicks::UNDEFINED  15267344125                       # Cumulative time (in ticks) in various power states
system.cpu0.branchPred.lookups                4846398                       # Number of BP lookups
system.cpu0.branchPred.condPredicted          4846398                       # Number of conditional branches predicted
system.cpu0.branchPred.condIncorrect            77787                       # Number of conditional branches incorrect
system.cpu0.branchPred.BTBLookups             4133972                       # Number of BTB lookups
system.cpu0.branchPred.BTBHits                      0                       # Number of BTB hits
system.cpu0.branchPred.BTBCorrect                   0                       # Number of correct BTB predictions (this stat may not work properly.
system.cpu0.branchPred.BTBHitPct             0.000000                       # BTB Hit Percentage
system.cpu0.branchPred.usedRAS                 518340                       # Number of times the RAS was used to get a target.
system.cpu0.branchPred.RASInCorrect               211                       # Number of incorrect RAS predictions.
system.cpu0.branchPred.indirectLookups        4133972                       # Number of indirect predictor lookups.
system.cpu0.branchPred.indirectHits           2921087                       # Number of indirect target hits.
system.cpu0.branchPred.indirectMisses         1212885                       # Number of indirect misses.
system.cpu0.branchPredindirectMispredicted          700                       # Number of mispredicted indirect branches.
system.cpu_voltage_domain.voltage                   1                       # Voltage in Volts
system.cpu_clk_domain.clock                       500                       # Clock period in ticks
system.cpu0.dtb.walker.pwrStateResidencyTicks::UNDEFINED  15267344125                       # Cumulative time (in ticks) in various power states
system.cpu0.dtb.rdAccesses                    7399666                       # TLB accesses on read requests
system.cpu0.dtb.wrAccesses                    1581577                       # TLB accesses on write requests
system.cpu0.dtb.rdMisses                         1600                       # TLB misses on read requests
system.cpu0.dtb.wrMisses                          200                       # TLB misses on write requests
system.cpu0.apic_clk_domain.clock                8000                       # Clock period in ticks
system.cpu0.interrupts.pwrStateResidencyTicks::UNDEFINED  15267344125                       # Cumulative time (in ticks) in various power states
system.cpu0.itb.walker.pwrStateResidencyTicks::UNDEFINED  15267344125                       # Cumulative time (in ticks) in various power states
system.cpu0.itb.rdAccesses                          0                       # TLB accesses on read requests
system.cpu0.itb.wrAccesses                    4456018                       # TLB accesses on write requests
system.cpu0.itb.rdMisses                            0                       # TLB misses on read requests
system.cpu0.itb.wrMisses                           35                       # TLB misses on write requests
system.cpu0.workload.numSyscalls                    4                       # Number of system calls
system.cpu0.pwrStateResidencyTicks::ON    15267344125                       # Cumulative time (in ticks) in various power states
system.cpu0.numCycles                        30534688                       # number of cpu cycles simulated
system.cpu0.numWorkItemsStarted                     0                       # number of work items this cpu started
system.cpu0.numWorkItemsCompleted                   0                       # number of work items this cpu completed
system.cpu0.fetch.icacheStallCycles           4515078                       # Number of cycles fetch is stalled on an Icache miss
system.cpu0.fetch.Insts                      38487409                       # Number of instructions fetch has processed
system.cpu0.fetch.Branches                    4846398                       # Number of branches that fetch encountered
system.cpu0.fetch.predictedBranches           3439427                       # Number of branches that fetch has predicted taken
system.cpu0.fetch.Cycles                     25927155                       # Number of cycles fetch has run and was not squashing or blocked
system.cpu0.fetch.SquashCycles                 155850                       # Number of cycles fetch has spent squashing
system.cpu0.fetch.MiscStallCycles                  30                       # Number of cycles fetch has spent waiting on interrupts, or bad addresses, or out of MSHRs
system.cpu0.fetch.PendingTrapStallCycles          198                       # Number of stall cycles due to pending traps
system.cpu0.fetch.IcacheWaitRetryStallCycles           46                       # Number of stall cycles due to full MSHR
system.cpu0.fetch.CacheLines                  4455983                       # Number of cache lines fetched
system.cpu0.fetch.IcacheSquashes                25369                       # Number of outstanding Icache misses that were squashed
system.cpu0.fetch.rateDist::samples          30520432                       # Number of instructions fetched each cycle (Total)
system.cpu0.fetch.rateDist::mean             2.212881                       # Number of instructions fetched each cycle (Total)
system.cpu0.fetch.rateDist::stdev            3.210563                       # Number of instructions fetched each cycle (Total)
system.cpu0.fetch.rateDist::underflows              0      0.00%      0.00% # Number of instructions fetched each cycle (Total)
system.cpu0.fetch.rateDist::0                18515119     60.66%     60.66% # Number of instructions fetched each cycle (Total)
system.cpu0.fetch.rateDist::1                 1307625      4.28%     64.95% # Number of instructions fetched each cycle (Total)
system.cpu0.fetch.rateDist::2                 1245126      4.08%     69.03% # Number of instructions fetched each cycle (Total)
system.cpu0.fetch.rateDist::3                  619261      2.03%     71.06% # Number of instructions fetched each cycle (Total)
system.cpu0.fetch.rateDist::4                  845333      2.77%     73.83% # Number of instructions fetched each cycle (Total)
system.cpu0.fetch.rateDist::5                 1230515      4.03%     77.86% # Number of instructions fetched each cycle (Total)
system.cpu0.fetch.rateDist::6                  544880      1.79%     79.64% # Number of instructions fetched each cycle (Total)
system.cpu0.fetch.rateDist::7                  621360      2.04%     81.68% # Number of instructions fetched each cycle (Total)
system.cpu0.fetch.rateDist::8                 5591213     18.32%    100.00% # Number of instructions fetched each cycle (Total)
system.cpu0.fetch.rateDist::overflows               0      0.00%    100.00% # Number of instructions fetched each cycle (Total)
system.cpu0.fetch.rateDist::min_value               0                       # Number of instructions fetched each cycle (Total)
system.cpu0.fetch.rateDist::max_value               8                       # Number of instructions fetched each cycle (Total)
system.cpu0.fetch.rateDist::total            30520432                       # Number of instructions fetched each cycle (Total)
system.cpu0.fetch.branchRate                 0.158718                       # Number of branch fetches per cycle
system.cpu0.fetch.rate                       1.260449                       # Number of inst fetches per cycle
system.cpu0.decode.IdleCycles                 3266604                       # Number of cycles decode is idle
system.cpu0.decode.BlockedCycles             18431794                       # Number of cycles decode is blocked
system.cpu0.decode.RunCycles                  4850730                       # Number of cycles decode is running
system.cpu0.decode.UnblockCycles              3893379                       # Number of cycles decode is unblocking
system.cpu0.decode.SquashCycles                 77925                       # Number of cycles decode is squashing
system.cpu0.decode.DecodedInsts              65117895                       # Number of instructions handled by decode
system.cpu0.rename.SquashCycles                 77925                       # Number of cycles rename is squashing
system.cpu0.rename.IdleCycles                 4746596                       # Number of cycles rename is idle
system.cpu0.rename.BlockCycles                8912548                       # Number of cycles rename is blocking
system.cpu0.rename.serializeStallCycles           871                       # count of cycles rename stalled for serializing inst
system.cpu0.rename.RunCycles                  7222061                       # Number of cycles rename is running
system.cpu0.rename.UnblockCycles              9560431                       # Number of cycles rename is unblocking
system.cpu0.rename.RenamedInsts              64653451                       # Number of instructions processed by rename
system.cpu0.rename.ROBFullEvents               543258                       # Number of times rename has blocked due to ROB full
system.cpu0.rename.IQFullEvents               6965806                       # Number of times rename has blocked due to IQ full
system.cpu0.rename.LQFullEvents                   160                       # Number of times rename has blocked due to LQ full
system.cpu0.rename.SQFullEvents               1219324                       # Number of times rename has blocked due to SQ full
system.cpu0.rename.RenamedOperands           75290994                       # Number of destination operands rename has renamed
system.cpu0.rename.RenameLookups            152262915                       # Number of register rename lookups that rename has made
system.cpu0.rename.int_rename_lookups        56191186                       # Number of integer rename lookups
system.cpu0.rename.fp_rename_lookups         53248027                       # Number of floating rename lookups
system.cpu0.rename.CommittedMaps             66576973                       # Number of HB maps that are committed
system.cpu0.rename.UndoneMaps                 8714230                       # Number of HB maps that are undone due to squashing
system.cpu0.rename.serializingInsts                18                       # count of serializing insts renamed
system.cpu0.rename.tempSerializingInsts            20                       # count of temporary serializing insts renamed
system.cpu0.rename.skidInsts                 20239763                       # count of insts added to the skid buffer
system.cpu0.memDep0.insertedLoads             7816741                       # Number of loads inserted to the mem dependence unit.
system.cpu0.memDep0.insertedStores            1585035                       # Number of stores inserted to the mem dependence unit.
system.cpu0.memDep0.conflictingLoads           301730                       # Number of conflicting loads.
system.cpu0.memDep0.conflictingStores           82468                       # Number of conflicting stores.
system.cpu0.iq.iqInstsAdded                  64220606                       # Number of instructions added to the IQ (excludes non-spec)
system.cpu0.iq.iqNonSpecInstsAdded                184                       # Number of non-speculative instructions added to the IQ
system.cpu0.iq.iqInstsIssued                 60217953                       # Number of instructions issued
system.cpu0.iq.iqSquashedInstsIssued              262                       # Number of squashed instructions issued
system.cpu0.iq.iqSquashedInstsExamined        7447881                       # Number of squashed instructions iterated over during squash; mainly for profiling
system.cpu0.iq.iqSquashedOperandsExamined     10804216                       # Number of squashed operands that are examined and possibly removed from graph
system.cpu0.iq.iqSquashedNonSpecRemoved           150                       # Number of squashed non-spec instructions that were removed
system.cpu0.iq.issued_per_cycle::samples     30520432                       # Number of insts issued each cycle
system.cpu0.iq.issued_per_cycle::mean        1.973037                       # Number of insts issued each cycle
system.cpu0.iq.issued_per_cycle::stdev       2.015489                       # Number of insts issued each cycle
system.cpu0.iq.issued_per_cycle::underflows            0      0.00%      0.00% # Number of insts issued each cycle
system.cpu0.iq.issued_per_cycle::0           10500952     34.41%     34.41% # Number of insts issued each cycle
system.cpu0.iq.issued_per_cycle::1            4789267     15.69%     50.10% # Number of insts issued each cycle
system.cpu0.iq.issued_per_cycle::2            4386719     14.37%     64.47% # Number of insts issued each cycle
system.cpu0.iq.issued_per_cycle::3            4098549     13.43%     77.90% # Number of insts issued each cycle
system.cpu0.iq.issued_per_cycle::4            2724009      8.93%     86.83% # Number of insts issued each cycle
system.cpu0.iq.issued_per_cycle::5            1671793      5.48%     92.30% # Number of insts issued each cycle
system.cpu0.iq.issued_per_cycle::6            1586614      5.20%     97.50% # Number of insts issued each cycle
system.cpu0.iq.issued_per_cycle::7             515316      1.69%     99.19% # Number of insts issued each cycle
system.cpu0.iq.issued_per_cycle::8             247213      0.81%    100.00% # Number of insts issued each cycle
system.cpu0.iq.issued_per_cycle::overflows            0      0.00%    100.00% # Number of insts issued each cycle
system.cpu0.iq.issued_per_cycle::min_value            0                       # Number of insts issued each cycle
system.cpu0.iq.issued_per_cycle::max_value            8                       # Number of insts issued each cycle
system.cpu0.iq.issued_per_cycle::total       30520432                       # Number of insts issued each cycle
system.cpu0.iq.fu_full::No_OpClass                  0      0.00%      0.00% # attempts to use FU when none available
system.cpu0.iq.fu_full::IntAlu                   2575      3.36%      3.36% # attempts to use FU when none available
system.cpu0.iq.fu_full::IntMult                     0      0.00%      3.36% # attempts to use FU when none available
system.cpu0.iq.fu_full::IntDiv                      0      0.00%      3.36% # attempts to use FU when none available
system.cpu0.iq.fu_full::FloatAdd                73885     96.37%     99.73% # attempts to use FU when none available
system.cpu0.iq.fu_full::FloatCmp                    0      0.00%     99.73% # attempts to use FU when none available
system.cpu0.iq.fu_full::FloatCvt                    0      0.00%     99.73% # attempts to use FU when none available
system.cpu0.iq.fu_full::FloatMult                   0      0.00%     99.73% # attempts to use FU when none available
system.cpu0.iq.fu_full::FloatMultAcc                0      0.00%     99.73% # attempts to use FU when none available
system.cpu0.iq.fu_full::FloatDiv                    0      0.00%     99.73% # attempts to use FU when none available
system.cpu0.iq.fu_full::FloatMisc                   0      0.00%     99.73% # attempts to use FU when none available
system.cpu0.iq.fu_full::FloatSqrt                   0      0.00%     99.73% # attempts to use FU when none available
system.cpu0.iq.fu_full::SimdAdd                     0      0.00%     99.73% # attempts to use FU when none available
system.cpu0.iq.fu_full::SimdAddAcc                  0      0.00%     99.73% # attempts to use FU when none available
system.cpu0.iq.fu_full::SimdAlu                     0      0.00%     99.73% # attempts to use FU when none available
system.cpu0.iq.fu_full::SimdCmp                     0      0.00%     99.73% # attempts to use FU when none available
system.cpu0.iq.fu_full::SimdCvt                     0      0.00%     99.73% # attempts to use FU when none available
system.cpu0.iq.fu_full::SimdMisc                    0      0.00%     99.73% # attempts to use FU when none available
system.cpu0.iq.fu_full::SimdMult                    0      0.00%     99.73% # attempts to use FU when none available
system.cpu0.iq.fu_full::SimdMultAcc                 0      0.00%     99.73% # attempts to use FU when none available
system.cpu0.iq.fu_full::SimdShift                   0      0.00%     99.73% # attempts to use FU when none available
system.cpu0.iq.fu_full::SimdShiftAcc                0      0.00%     99.73% # attempts to use FU when none available
system.cpu0.iq.fu_full::SimdSqrt                    0      0.00%     99.73% # attempts to use FU when none available
system.cpu0.iq.fu_full::SimdFloatAdd                0      0.00%     99.73% # attempts to use FU when none available
system.cpu0.iq.fu_full::SimdFloatAlu                0      0.00%     99.73% # attempts to use FU when none available
system.cpu0.iq.fu_full::SimdFloatCmp                0      0.00%     99.73% # attempts to use FU when none available
system.cpu0.iq.fu_full::SimdFloatCvt                0      0.00%     99.73% # attempts to use FU when none available
system.cpu0.iq.fu_full::SimdFloatDiv                0      0.00%     99.73% # attempts to use FU when none available
system.cpu0.iq.fu_full::SimdFloatMisc               0      0.00%     99.73% # attempts to use FU when none available
system.cpu0.iq.fu_full::SimdFloatMult               0      0.00%     99.73% # attempts to use FU when none available
system.cpu0.iq.fu_full::SimdFloatMultAcc            0      0.00%     99.73% # attempts to use FU when none available
system.cpu0.iq.fu_full::SimdFloatSqrt               0      0.00%     99.73% # attempts to use FU when none available
system.cpu0.iq.fu_full::MemRead                   171      0.22%     99.95% # attempts to use FU when none available
system.cpu0.iq.fu_full::MemWrite                   25      0.03%     99.99% # attempts to use FU when none available
system.cpu0.iq.fu_full::FloatMemRead                1      0.00%     99.99% # attempts to use FU when none available
system.cpu0.iq.fu_full::FloatMemWrite              10      0.01%    100.00% # attempts to use FU when none available
system.cpu0.iq.fu_full::IprAccess                   0      0.00%    100.00% # attempts to use FU when none available
system.cpu0.iq.fu_full::InstPrefetch                0      0.00%    100.00% # attempts to use FU when none available
system.cpu0.iq.FU_type_0::No_OpClass            10400      0.02%      0.02% # Type of FU issued
system.cpu0.iq.FU_type_0::IntAlu             34977848     58.09%     58.10% # Type of FU issued
system.cpu0.iq.FU_type_0::IntMult                  25      0.00%     58.10% # Type of FU issued
system.cpu0.iq.FU_type_0::IntDiv                   12      0.00%     58.10% # Type of FU issued
system.cpu0.iq.FU_type_0::FloatAdd           16264509     27.01%     85.11% # Type of FU issued
system.cpu0.iq.FU_type_0::FloatCmp                  0      0.00%     85.11% # Type of FU issued
system.cpu0.iq.FU_type_0::FloatCvt                  0      0.00%     85.11% # Type of FU issued
system.cpu0.iq.FU_type_0::FloatMult                 0      0.00%     85.11% # Type of FU issued
system.cpu0.iq.FU_type_0::FloatMultAcc              0      0.00%     85.11% # Type of FU issued
system.cpu0.iq.FU_type_0::FloatDiv                  0      0.00%     85.11% # Type of FU issued
system.cpu0.iq.FU_type_0::FloatMisc                 0      0.00%     85.11% # Type of FU issued
system.cpu0.iq.FU_type_0::FloatSqrt                 0      0.00%     85.11% # Type of FU issued
system.cpu0.iq.FU_type_0::SimdAdd                   0      0.00%     85.11% # Type of FU issued
system.cpu0.iq.FU_type_0::SimdAddAcc                0      0.00%     85.11% # Type of FU issued
system.cpu0.iq.FU_type_0::SimdAlu                   0      0.00%     85.11% # Type of FU issued
system.cpu0.iq.FU_type_0::SimdCmp                   0      0.00%     85.11% # Type of FU issued
system.cpu0.iq.FU_type_0::SimdCvt                   0      0.00%     85.11% # Type of FU issued
system.cpu0.iq.FU_type_0::SimdMisc                  0      0.00%     85.11% # Type of FU issued
system.cpu0.iq.FU_type_0::SimdMult                  0      0.00%     85.11% # Type of FU issued
system.cpu0.iq.FU_type_0::SimdMultAcc               0      0.00%     85.11% # Type of FU issued
system.cpu0.iq.FU_type_0::SimdShift                 0      0.00%     85.11% # Type of FU issued
system.cpu0.iq.FU_type_0::SimdShiftAcc              0      0.00%     85.11% # Type of FU issued
system.cpu0.iq.FU_type_0::SimdSqrt                  0      0.00%     85.11% # Type of FU issued
system.cpu0.iq.FU_type_0::SimdFloatAdd              0      0.00%     85.11% # Type of FU issued
system.cpu0.iq.FU_type_0::SimdFloatAlu              0      0.00%     85.11% # Type of FU issued
system.cpu0.iq.FU_type_0::SimdFloatCmp              0      0.00%     85.11% # Type of FU issued
system.cpu0.iq.FU_type_0::SimdFloatCvt              0      0.00%     85.11% # Type of FU issued
system.cpu0.iq.FU_type_0::SimdFloatDiv              0      0.00%     85.11% # Type of FU issued
system.cpu0.iq.FU_type_0::SimdFloatMisc             0      0.00%     85.11% # Type of FU issued
system.cpu0.iq.FU_type_0::SimdFloatMult             0      0.00%     85.11% # Type of FU issued
system.cpu0.iq.FU_type_0::SimdFloatMultAcc            0      0.00%     85.11% # Type of FU issued
system.cpu0.iq.FU_type_0::SimdFloatSqrt             0      0.00%     85.11% # Type of FU issued
system.cpu0.iq.FU_type_0::MemRead             2484518      4.13%     89.24% # Type of FU issued
system.cpu0.iq.FU_type_0::MemWrite            1055838      1.75%     90.99% # Type of FU issued
system.cpu0.iq.FU_type_0::FloatMemRead        4898383      8.13%     99.13% # Type of FU issued
system.cpu0.iq.FU_type_0::FloatMemWrite        526420      0.87%    100.00% # Type of FU issued
system.cpu0.iq.FU_type_0::IprAccess                 0      0.00%    100.00% # Type of FU issued
system.cpu0.iq.FU_type_0::InstPrefetch              0      0.00%    100.00% # Type of FU issued
system.cpu0.iq.FU_type_0::total              60217953                       # Type of FU issued
system.cpu0.iq.rate                          1.972116                       # Inst issue rate
system.cpu0.iq.fu_busy_cnt                      76667                       # FU busy when requested
system.cpu0.iq.fu_busy_rate                  0.001273                       # FU busy rate (busy events/executed inst)
system.cpu0.iq.int_inst_queue_reads          97992871                       # Number of integer instruction queue reads
system.cpu0.iq.int_inst_queue_writes         36571864                       # Number of integer instruction queue writes
system.cpu0.iq.int_inst_queue_wakeup_accesses     33672103                       # Number of integer instruction queue wakeup accesses
system.cpu0.iq.fp_inst_queue_reads           53040393                       # Number of floating instruction queue reads
system.cpu0.iq.fp_inst_queue_writes          35096926                       # Number of floating instruction queue writes
system.cpu0.iq.fp_inst_queue_wakeup_accesses     26362492                       # Number of floating instruction queue wakeup accesses
system.cpu0.iq.vec_inst_queue_reads                 0                       # Number of vector instruction queue reads
system.cpu0.iq.vec_inst_queue_writes                0                       # Number of vector instruction queue writes
system.cpu0.iq.vec_inst_queue_wakeup_accesses            0                       # Number of vector instruction queue wakeup accesses
system.cpu0.iq.int_alu_accesses              33727075                       # Number of integer alu accesses
system.cpu0.iq.fp_alu_accesses               26557145                       # Number of floating point alu accesses
system.cpu0.iq.vec_alu_accesses                     0                       # Number of vector alu accesses
system.cpu0.iew.lsq.thread0.forwLoads          297516                       # Number of loads that had data forwarded from stores
system.cpu0.iew.lsq.thread0.invAddrLoads            0                       # Number of loads ignored due to an invalid address
system.cpu0.iew.lsq.thread0.squashedLoads       976010                       # Number of loads squashed
system.cpu0.iew.lsq.thread0.ignoredResponses           31                       # Number of memory responses ignored because the instruction is squashed
system.cpu0.iew.lsq.thread0.memOrderViolation          121                       # Number of memory ordering violations
system.cpu0.iew.lsq.thread0.squashedStores         5082                       # Number of stores squashed
system.cpu0.iew.lsq.thread0.invAddrSwpfs            0                       # Number of software prefetches ignored due to an invalid address
system.cpu0.iew.lsq.thread0.blockedLoads            0                       # Number of blocked loads due to partial load-store forwarding
system.cpu0.iew.lsq.thread0.rescheduledLoads            4                       # Number of loads that were rescheduled
system.cpu0.iew.lsq.thread0.cacheBlocked           77                       # Number of times an access to memory failed due to the cache being blocked
system.cpu0.iew.iewIdleCycles                       0                       # Number of cycles IEW is idle
system.cpu0.iew.iewSquashCycles                 77925                       # Number of cycles IEW is squashing
system.cpu0.iew.iewBlockCycles                6075708                       # Number of cycles IEW is blocking
system.cpu0.iew.iewUnblockCycles               946504                       # Number of cycles IEW is unblocking
system.cpu0.iew.iewDispatchedInsts           64220790                       # Number of instructions dispatched to IQ
system.cpu0.iew.iewDispSquashedInsts               34                       # Number of squashed instructions skipped by dispatch
system.cpu0.iew.iewDispLoadInsts              7816741                       # Number of dispatched load instructions
system.cpu0.iew.iewDispStoreInsts             1585035                       # Number of dispatched store instructions
system.cpu0.iew.iewDispNonSpecInsts                71                       # Number of dispatched non-speculative instructions
system.cpu0.iew.iewIQFullEvents                128387                       # Number of times the IQ has become full, causing a stall
system.cpu0.iew.iewLSQFullEvents               774737                       # Number of times the LSQ has become full, causing a stall
system.cpu0.iew.memOrderViolationEvents           121                       # Number of memory order violations
system.cpu0.iew.predictedTakenIncorrect         54097                       # Number of branches that were predicted taken incorrectly
system.cpu0.iew.predictedNotTakenIncorrect        24417                       # Number of branches that were predicted not taken incorrectly
system.cpu0.iew.branchMispredicts               78514                       # Number of branch mispredicts detected at execute
system.cpu0.iew.iewExecutedInsts             60044335                       # Number of executed instructions
system.cpu0.iew.iewExecLoadInsts              7380977                       # Number of load instructions executed
system.cpu0.iew.iewExecSquashedInsts           173615                       # Number of squashed instructions skipped in execute
system.cpu0.iew.exec_swp                            0                       # number of swp insts executed
system.cpu0.iew.exec_nop                            0                       # number of nop insts executed
system.cpu0.iew.exec_refs                     8962552                       # number of memory reference insts executed
system.cpu0.iew.exec_branches                 4459989                       # Number of branches executed
system.cpu0.iew.exec_stores                   1581575                       # Number of stores executed
system.cpu0.iew.exec_rate                    1.966430                       # Inst execution rate
system.cpu0.iew.wb_sent                      60039327                       # cumulative count of insts sent to commit
system.cpu0.iew.wb_count                     60034595                       # cumulative count of insts written-back
system.cpu0.iew.wb_producers                 45480425                       # num instructions producing a value
system.cpu0.iew.wb_consumers                 77501281                       # num instructions consuming a value
system.cpu0.iew.wb_rate                      1.966111                       # insts written-back per cycle
system.cpu0.iew.wb_fanout                    0.586834                       # average fanout of values written-back
system.cpu0.commit.commitSquashedInsts        7447885                       # The number of squashed insts skipped by commit
system.cpu0.commit.commitNonSpecStalls             34                       # The number of times commit has been forced to stall to communicate backwards
system.cpu0.commit.branchMispredicts            77813                       # The number of times a branch was mispredicted
system.cpu0.commit.committed_per_cycle::samples     29568029                       # Number of insts commited each cycle
system.cpu0.commit.committed_per_cycle::mean     1.920081                       # Number of insts commited each cycle
system.cpu0.commit.committed_per_cycle::stdev     2.674078                       # Number of insts commited each cycle
system.cpu0.commit.committed_per_cycle::underflows            0      0.00%      0.00% # Number of insts commited each cycle
system.cpu0.commit.committed_per_cycle::0     14287807     48.32%     48.32% # Number of insts commited each cycle
system.cpu0.commit.committed_per_cycle::1      5458655     18.46%     66.78% # Number of insts commited each cycle
system.cpu0.commit.committed_per_cycle::2       764079      2.58%     69.37% # Number of insts commited each cycle
system.cpu0.commit.committed_per_cycle::3      2092984      7.08%     76.45% # Number of insts commited each cycle
system.cpu0.commit.committed_per_cycle::4      1867450      6.32%     82.76% # Number of insts commited each cycle
system.cpu0.commit.committed_per_cycle::5      1247523      4.22%     86.98% # Number of insts commited each cycle
system.cpu0.commit.committed_per_cycle::6       298922      1.01%     87.99% # Number of insts commited each cycle
system.cpu0.commit.committed_per_cycle::7       398579      1.35%     89.34% # Number of insts commited each cycle
system.cpu0.commit.committed_per_cycle::8      3152030     10.66%    100.00% # Number of insts commited each cycle
system.cpu0.commit.committed_per_cycle::overflows            0      0.00%    100.00% # Number of insts commited each cycle
system.cpu0.commit.committed_per_cycle::min_value            0                       # Number of insts commited each cycle
system.cpu0.commit.committed_per_cycle::max_value            8                       # Number of insts commited each cycle
system.cpu0.commit.committed_per_cycle::total     29568029                       # Number of insts commited each cycle
system.cpu0.commit.committedInsts            31905142                       # Number of instructions committed
system.cpu0.commit.committedOps              56773005                       # Number of ops (including micro ops) committed
system.cpu0.commit.swp_count                        0                       # Number of s/w prefetches committed
system.cpu0.commit.refs                       8420695                       # Number of memory references committed
system.cpu0.commit.loads                      6840742                       # Number of loads committed
system.cpu0.commit.membars                         20                       # Number of memory barriers committed
system.cpu0.commit.branches                   4384234                       # Number of branches committed
system.cpu0.commit.vec_insts                        0                       # Number of committed Vector instructions.
system.cpu0.commit.fp_insts                  24223243                       # Number of committed floating point instructions.
system.cpu0.commit.int_insts                 39063577                       # Number of committed integer instructions.
system.cpu0.commit.function_calls              444466                       # Number of function calls committed.
system.cpu0.commit.op_class_0::No_OpClass         9526      0.02%      0.02% # Class of committed instruction
system.cpu0.commit.op_class_0::IntAlu        33161574     58.41%     58.43% # Class of committed instruction
system.cpu0.commit.op_class_0::IntMult             22      0.00%     58.43% # Class of committed instruction
system.cpu0.commit.op_class_0::IntDiv               7      0.00%     58.43% # Class of committed instruction
system.cpu0.commit.op_class_0::FloatAdd      15181181     26.74%     85.17% # Class of committed instruction
system.cpu0.commit.op_class_0::FloatCmp             0      0.00%     85.17% # Class of committed instruction
system.cpu0.commit.op_class_0::FloatCvt             0      0.00%     85.17% # Class of committed instruction
system.cpu0.commit.op_class_0::FloatMult            0      0.00%     85.17% # Class of committed instruction
system.cpu0.commit.op_class_0::FloatMultAcc            0      0.00%     85.17% # Class of committed instruction
system.cpu0.commit.op_class_0::FloatDiv             0      0.00%     85.17% # Class of committed instruction
system.cpu0.commit.op_class_0::FloatMisc            0      0.00%     85.17% # Class of committed instruction
system.cpu0.commit.op_class_0::FloatSqrt            0      0.00%     85.17% # Class of committed instruction
system.cpu0.commit.op_class_0::SimdAdd              0      0.00%     85.17% # Class of committed instruction
system.cpu0.commit.op_class_0::SimdAddAcc            0      0.00%     85.17% # Class of committed instruction
system.cpu0.commit.op_class_0::SimdAlu              0      0.00%     85.17% # Class of committed instruction
system.cpu0.commit.op_class_0::SimdCmp              0      0.00%     85.17% # Class of committed instruction
system.cpu0.commit.op_class_0::SimdCvt              0      0.00%     85.17% # Class of committed instruction
system.cpu0.commit.op_class_0::SimdMisc             0      0.00%     85.17% # Class of committed instruction
system.cpu0.commit.op_class_0::SimdMult             0      0.00%     85.17% # Class of committed instruction
system.cpu0.commit.op_class_0::SimdMultAcc            0      0.00%     85.17% # Class of committed instruction
system.cpu0.commit.op_class_0::SimdShift            0      0.00%     85.17% # Class of committed instruction
system.cpu0.commit.op_class_0::SimdShiftAcc            0      0.00%     85.17% # Class of committed instruction
system.cpu0.commit.op_class_0::SimdSqrt             0      0.00%     85.17% # Class of committed instruction
system.cpu0.commit.op_class_0::SimdFloatAdd            0      0.00%     85.17% # Class of committed instruction
system.cpu0.commit.op_class_0::SimdFloatAlu            0      0.00%     85.17% # Class of committed instruction
system.cpu0.commit.op_class_0::SimdFloatCmp            0      0.00%     85.17% # Class of committed instruction
system.cpu0.commit.op_class_0::SimdFloatCvt            0      0.00%     85.17% # Class of committed instruction
system.cpu0.commit.op_class_0::SimdFloatDiv            0      0.00%     85.17% # Class of committed instruction
system.cpu0.commit.op_class_0::SimdFloatMisc            0      0.00%     85.17% # Class of committed instruction
system.cpu0.commit.op_class_0::SimdFloatMult            0      0.00%     85.17% # Class of committed instruction
system.cpu0.commit.op_class_0::SimdFloatMultAcc            0      0.00%     85.17% # Class of committed instruction
system.cpu0.commit.op_class_0::SimdFloatSqrt            0      0.00%     85.17% # Class of committed instruction
system.cpu0.commit.op_class_0::MemRead        2473067      4.36%     89.52% # Class of committed instruction
system.cpu0.commit.op_class_0::MemWrite       1053579      1.86%     91.38% # Class of committed instruction
system.cpu0.commit.op_class_0::FloatMemRead      4367675      7.69%     99.07% # Class of committed instruction
system.cpu0.commit.op_class_0::FloatMemWrite       526374      0.93%    100.00% # Class of committed instruction
system.cpu0.commit.op_class_0::IprAccess            0      0.00%    100.00% # Class of committed instruction
system.cpu0.commit.op_class_0::InstPrefetch            0      0.00%    100.00% # Class of committed instruction
system.cpu0.commit.op_class_0::total         56773005                       # Class of committed instruction
system.cpu0.commit.bw_lim_events              3152030                       # number cycles where commit BW limit reached
system.cpu0.rob.rob_reads                    90636889                       # The number of ROB reads
system.cpu0.rob.rob_writes                  129394157                       # The number of ROB writes
system.cpu0.timesIdled                            126                       # Number of times that the entire CPU went into an idle state and unscheduled itself
system.cpu0.idleCycles                          14256                       # Total number of cycles that the CPU has spent unscheduled due to idling
system.cpu0.committedInsts                   31905142                       # Number of Instructions Simulated
system.cpu0.committedOps                     56773005                       # Number of Ops (including micro ops) Simulated
system.cpu0.cpi                              0.957046                       # CPI: Cycles Per Instruction
system.cpu0.cpi_total                        0.957046                       # CPI: Total CPI of All Threads
system.cpu0.ipc                              1.044882                       # IPC: Instructions Per Cycle
system.cpu0.ipc_total                        1.044882                       # IPC: Total IPC of All Threads
system.cpu0.int_regfile_reads                53270455                       # number of integer regfile reads
system.cpu0.int_regfile_writes               29106919                       # number of integer regfile writes
system.cpu0.fp_regfile_reads                 45899802                       # number of floating regfile reads
system.cpu0.fp_regfile_writes                23546248                       # number of floating regfile writes
system.cpu0.cc_regfile_reads                 20218669                       # number of cc regfile reads
system.cpu0.cc_regfile_writes                17260166                       # number of cc regfile writes
system.cpu0.misc_regfile_reads               20504632                       # number of misc regfile reads
system.cpu0.dcache.tags.pwrStateResidencyTicks::UNDEFINED  15267344125                       # Cumulative time (in ticks) in various power states
system.cpu0.dcache.tags.replacements            90594                       # number of replacements
system.cpu0.dcache.tags.tagsinuse                 512                       # Cycle average of tags in use
system.cpu0.dcache.tags.total_refs            1084229                       # Total number of references to valid blocks.
system.cpu0.dcache.tags.sampled_refs            90594                       # Sample count of references to valid blocks.
system.cpu0.dcache.tags.avg_refs            11.968000                       # Average number of references to valid blocks.
system.cpu0.dcache.tags.warmup_cycle                0                       # Cycle when the warmup percentage was hit.
system.cpu0.dcache.tags.occ_blocks::cpu0.data          512                       # Average occupied blocks per requestor
system.cpu0.dcache.tags.occ_percent::cpu0.data            1                       # Average percentage of cache occupancy
system.cpu0.dcache.tags.occ_percent::total            1                       # Average percentage of cache occupancy
system.cpu0.dcache.tags.occ_task_id_blocks::1024          512                       # Occupied blocks per task id
system.cpu0.dcache.tags.age_task_id_blocks_1024::0            9                       # Occupied blocks per task id
system.cpu0.dcache.tags.age_task_id_blocks_1024::1           85                       # Occupied blocks per task id
system.cpu0.dcache.tags.age_task_id_blocks_1024::2          200                       # Occupied blocks per task id
system.cpu0.dcache.tags.age_task_id_blocks_1024::3           10                       # Occupied blocks per task id
system.cpu0.dcache.tags.age_task_id_blocks_1024::4          208                       # Occupied blocks per task id
system.cpu0.dcache.tags.occ_task_id_percent::1024            1                       # Percentage of cache occupancy per task id
system.cpu0.dcache.tags.tag_accesses         34817378                       # Number of tag accesses
system.cpu0.dcache.tags.data_accesses        34817378                       # Number of data accesses
system.cpu0.dcache.pwrStateResidencyTicks::UNDEFINED  15267344125                       # Cumulative time (in ticks) in various power states
system.cpu0.dcache.ReadReq_hits::cpu0.data      6243626                       # number of ReadReq hits
system.cpu0.dcache.ReadReq_hits::total        6243626                       # number of ReadReq hits
system.cpu0.dcache.WriteReq_hits::cpu0.data      1568373                       # number of WriteReq hits
system.cpu0.dcache.WriteReq_hits::total       1568373                       # number of WriteReq hits
system.cpu0.dcache.demand_hits::cpu0.data      7811999                       # number of demand (read+write) hits
system.cpu0.dcache.demand_hits::total         7811999                       # number of demand (read+write) hits
system.cpu0.dcache.overall_hits::cpu0.data      7811999                       # number of overall hits
system.cpu0.dcache.overall_hits::total        7811999                       # number of overall hits
system.cpu0.dcache.ReadReq_misses::cpu0.data       858117                       # number of ReadReq misses
system.cpu0.dcache.ReadReq_misses::total       858117                       # number of ReadReq misses
system.cpu0.dcache.WriteReq_misses::cpu0.data        11580                       # number of WriteReq misses
system.cpu0.dcache.WriteReq_misses::total        11580                       # number of WriteReq misses
system.cpu0.dcache.demand_misses::cpu0.data       869697                       # number of demand (read+write) misses
system.cpu0.dcache.demand_misses::total        869697                       # number of demand (read+write) misses
system.cpu0.dcache.overall_misses::cpu0.data       869697                       # number of overall misses
system.cpu0.dcache.overall_misses::total       869697                       # number of overall misses
system.cpu0.dcache.ReadReq_miss_latency::cpu0.data  58446575500                       # number of ReadReq miss cycles
system.cpu0.dcache.ReadReq_miss_latency::total  58446575500                       # number of ReadReq miss cycles
system.cpu0.dcache.WriteReq_miss_latency::cpu0.data    948163999                       # number of WriteReq miss cycles
system.cpu0.dcache.WriteReq_miss_latency::total    948163999                       # number of WriteReq miss cycles
system.cpu0.dcache.demand_miss_latency::cpu0.data  59394739499                       # number of demand (read+write) miss cycles
system.cpu0.dcache.demand_miss_latency::total  59394739499                       # number of demand (read+write) miss cycles
system.cpu0.dcache.overall_miss_latency::cpu0.data  59394739499                       # number of overall miss cycles
system.cpu0.dcache.overall_miss_latency::total  59394739499                       # number of overall miss cycles
system.cpu0.dcache.ReadReq_accesses::cpu0.data      7101743                       # number of ReadReq accesses(hits+misses)
system.cpu0.dcache.ReadReq_accesses::total      7101743                       # number of ReadReq accesses(hits+misses)
system.cpu0.dcache.WriteReq_accesses::cpu0.data      1579953                       # number of WriteReq accesses(hits+misses)
system.cpu0.dcache.WriteReq_accesses::total      1579953                       # number of WriteReq accesses(hits+misses)
system.cpu0.dcache.demand_accesses::cpu0.data      8681696                       # number of demand (read+write) accesses
system.cpu0.dcache.demand_accesses::total      8681696                       # number of demand (read+write) accesses
system.cpu0.dcache.overall_accesses::cpu0.data      8681696                       # number of overall (read+write) accesses
system.cpu0.dcache.overall_accesses::total      8681696                       # number of overall (read+write) accesses
system.cpu0.dcache.ReadReq_miss_rate::cpu0.data     0.120832                       # miss rate for ReadReq accesses
system.cpu0.dcache.ReadReq_miss_rate::total     0.120832                       # miss rate for ReadReq accesses
system.cpu0.dcache.WriteReq_miss_rate::cpu0.data     0.007329                       # miss rate for WriteReq accesses
system.cpu0.dcache.WriteReq_miss_rate::total     0.007329                       # miss rate for WriteReq accesses
system.cpu0.dcache.demand_miss_rate::cpu0.data     0.100176                       # miss rate for demand accesses
system.cpu0.dcache.demand_miss_rate::total     0.100176                       # miss rate for demand accesses
system.cpu0.dcache.overall_miss_rate::cpu0.data     0.100176                       # miss rate for overall accesses
system.cpu0.dcache.overall_miss_rate::total     0.100176                       # miss rate for overall accesses
system.cpu0.dcache.ReadReq_avg_miss_latency::cpu0.data 68110.264102                       # average ReadReq miss latency
system.cpu0.dcache.ReadReq_avg_miss_latency::total 68110.264102                       # average ReadReq miss latency
system.cpu0.dcache.WriteReq_avg_miss_latency::cpu0.data 81879.447237                       # average WriteReq miss latency
system.cpu0.dcache.WriteReq_avg_miss_latency::total 81879.447237                       # average WriteReq miss latency
system.cpu0.dcache.demand_avg_miss_latency::cpu0.data 68293.600529                       # average overall miss latency
system.cpu0.dcache.demand_avg_miss_latency::total 68293.600529                       # average overall miss latency
system.cpu0.dcache.overall_avg_miss_latency::cpu0.data 68293.600529                       # average overall miss latency
system.cpu0.dcache.overall_avg_miss_latency::total 68293.600529                       # average overall miss latency
system.cpu0.dcache.blocked_cycles::no_mshrs         3212                       # number of cycles access was blocked
system.cpu0.dcache.blocked_cycles::no_targets            0                       # number of cycles access was blocked
system.cpu0.dcache.blocked::no_mshrs               33                       # number of cycles access was blocked
system.cpu0.dcache.blocked::no_targets              0                       # number of cycles access was blocked
system.cpu0.dcache.avg_blocked_cycles::no_mshrs    97.333333                       # average number of cycles each access was blocked
system.cpu0.dcache.avg_blocked_cycles::no_targets          nan                       # average number of cycles each access was blocked
system.cpu0.dcache.writebacks::writebacks        21540                       # number of writebacks
system.cpu0.dcache.writebacks::total            21540                       # number of writebacks
system.cpu0.dcache.ReadReq_mshr_hits::cpu0.data       779104                       # number of ReadReq MSHR hits
system.cpu0.dcache.ReadReq_mshr_hits::total       779104                       # number of ReadReq MSHR hits
system.cpu0.dcache.WriteReq_mshr_hits::cpu0.data            1                       # number of WriteReq MSHR hits
system.cpu0.dcache.WriteReq_mshr_hits::total            1                       # number of WriteReq MSHR hits
system.cpu0.dcache.demand_mshr_hits::cpu0.data       779105                       # number of demand (read+write) MSHR hits
system.cpu0.dcache.demand_mshr_hits::total       779105                       # number of demand (read+write) MSHR hits
system.cpu0.dcache.overall_mshr_hits::cpu0.data       779105                       # number of overall MSHR hits
system.cpu0.dcache.overall_mshr_hits::total       779105                       # number of overall MSHR hits
system.cpu0.dcache.ReadReq_mshr_misses::cpu0.data        79013                       # number of ReadReq MSHR misses
system.cpu0.dcache.ReadReq_mshr_misses::total        79013                       # number of ReadReq MSHR misses
system.cpu0.dcache.WriteReq_mshr_misses::cpu0.data        11579                       # number of WriteReq MSHR misses
system.cpu0.dcache.WriteReq_mshr_misses::total        11579                       # number of WriteReq MSHR misses
[...]
system.l2.ReadSharedReq_miss_rate::total     0.986698                       # miss rate for ReadSharedReq accesses
system.l2.demand_miss_rate::cpu0.inst        0.802419                       # miss rate for demand accesses
system.l2.demand_miss_rate::cpu0.data        0.988288                       # miss rate for demand accesses
system.l2.demand_miss_rate::total            0.987781                       # miss rate for demand accesses
system.l2.overall_miss_rate::cpu0.inst       0.802419                       # miss rate for overall accesses
system.l2.overall_miss_rate::cpu0.data       0.988288                       # miss rate for overall accesses
system.l2.overall_miss_rate::total           0.987781                       # miss rate for overall accesses
system.l2.ReadExReq_avg_miss_latency::cpu0.data 79436.900337                       # average ReadExReq miss latency
system.l2.ReadExReq_avg_miss_latency::total 79436.900337                       # average ReadExReq miss latency
system.l2.ReadCleanReq_avg_miss_latency::cpu0.inst 100110.552764                       # average ReadCleanReq miss latency
system.l2.ReadCleanReq_avg_miss_latency::total 100110.552764                       # average ReadCleanReq miss latency
system.l2.ReadSharedReq_avg_miss_latency::cpu0.data 80450.899156                       # average ReadSharedReq miss latency
system.l2.ReadSharedReq_avg_miss_latency::total 80450.899156                       # average ReadSharedReq miss latency
system.l2.demand_avg_miss_latency::cpu0.inst 100110.552764                       # average overall miss latency
system.l2.demand_avg_miss_latency::cpu0.data 80319.872446                       # average overall miss latency
system.l2.demand_avg_miss_latency::total 80363.763513                       # average overall miss latency
system.l2.overall_avg_miss_latency::cpu0.inst 100110.552764                       # average overall miss latency
system.l2.overall_avg_miss_latency::cpu0.data 80319.872446                       # average overall miss latency
system.l2.overall_avg_miss_latency::total 80363.763513                       # average overall miss latency
system.l2.blocked_cycles::no_mshrs                  0                       # number of cycles access was blocked
system.l2.blocked_cycles::no_targets                0                       # number of cycles access was blocked
system.l2.blocked::no_mshrs                         0                       # number of cycles access was blocked
system.l2.blocked::no_targets                       0                       # number of cycles access was blocked
system.l2.avg_blocked_cycles::no_mshrs            nan                       # average number of cycles each access was blocked
system.l2.avg_blocked_cycles::no_targets          nan                       # average number of cycles each access was blocked
system.l2.ReadExReq_mshr_misses::cpu0.data        11569                       # number of ReadExReq MSHR misses
system.l2.ReadExReq_mshr_misses::total          11569                       # number of ReadExReq MSHR misses
system.l2.ReadCleanReq_mshr_misses::cpu0.inst          199                       # number of ReadCleanReq MSHR misses
system.l2.ReadCleanReq_mshr_misses::total          199                       # number of ReadCleanReq MSHR misses
system.l2.ReadSharedReq_mshr_misses::cpu0.data        77962                       # number of ReadSharedReq MSHR misses
system.l2.ReadSharedReq_mshr_misses::total        77962                       # number of ReadSharedReq MSHR misses
system.l2.demand_mshr_misses::cpu0.inst           199                       # number of demand (read+write) MSHR misses
system.l2.demand_mshr_misses::cpu0.data         89531                       # number of demand (read+write) MSHR misses
system.l2.demand_mshr_misses::total             89730                       # number of demand (read+write) MSHR misses
system.l2.overall_mshr_misses::cpu0.inst          199                       # number of overall MSHR misses
system.l2.overall_mshr_misses::cpu0.data        89531                       # number of overall MSHR misses
system.l2.overall_mshr_misses::total            89730                       # number of overall MSHR misses
system.l2.ReadExReq_mshr_miss_latency::cpu0.data    803315500                       # number of ReadExReq MSHR miss cycles
system.l2.ReadExReq_mshr_miss_latency::total    803315500                       # number of ReadExReq MSHR miss cycles
system.l2.ReadCleanReq_mshr_miss_latency::cpu0.inst     17932000                       # number of ReadCleanReq MSHR miss cycles
system.l2.ReadCleanReq_mshr_miss_latency::total     17932000                       # number of ReadCleanReq MSHR miss cycles
system.l2.ReadSharedReq_mshr_miss_latency::cpu0.data   5492473000                       # number of ReadSharedReq MSHR miss cycles
system.l2.ReadSharedReq_mshr_miss_latency::total   5492473000                       # number of ReadSharedReq MSHR miss cycles
system.l2.demand_mshr_miss_latency::cpu0.inst     17932000                       # number of demand (read+write) MSHR miss cycles
system.l2.demand_mshr_miss_latency::cpu0.data   6295788500                       # number of demand (read+write) MSHR miss cycles
system.l2.demand_mshr_miss_latency::total   6313720500                       # number of demand (read+write) MSHR miss cycles
system.l2.overall_mshr_miss_latency::cpu0.inst     17932000                       # number of overall MSHR miss cycles
system.l2.overall_mshr_miss_latency::cpu0.data   6295788500                       # number of overall MSHR miss cycles
system.l2.overall_mshr_miss_latency::total   6313720500                       # number of overall MSHR miss cycles
system.l2.ReadExReq_mshr_miss_rate::cpu0.data     0.999136                       # mshr miss rate for ReadExReq accesses
system.l2.ReadExReq_mshr_miss_rate::total     0.999136                       # mshr miss rate for ReadExReq accesses
system.l2.ReadCleanReq_mshr_miss_rate::cpu0.inst     0.802419                       # mshr miss rate for ReadCleanReq accesses
system.l2.ReadCleanReq_mshr_miss_rate::total     0.802419                       # mshr miss rate for ReadCleanReq accesses
system.l2.ReadSharedReq_mshr_miss_rate::cpu0.data     0.986698                       # mshr miss rate for ReadSharedReq accesses
system.l2.ReadSharedReq_mshr_miss_rate::total     0.986698                       # mshr miss rate for ReadSharedReq accesses
system.l2.demand_mshr_miss_rate::cpu0.inst     0.802419                       # mshr miss rate for demand accesses
system.l2.demand_mshr_miss_rate::cpu0.data     0.988288                       # mshr miss rate for demand accesses
system.l2.demand_mshr_miss_rate::total       0.987781                       # mshr miss rate for demand accesses
system.l2.overall_mshr_miss_rate::cpu0.inst     0.802419                       # mshr miss rate for overall accesses
system.l2.overall_mshr_miss_rate::cpu0.data     0.988288                       # mshr miss rate for overall accesses
system.l2.overall_mshr_miss_rate::total      0.987781                       # mshr miss rate for overall accesses
system.l2.ReadExReq_avg_mshr_miss_latency::cpu0.data 69436.900337                       # average ReadExReq mshr miss latency
system.l2.ReadExReq_avg_mshr_miss_latency::total 69436.900337                       # average ReadExReq mshr miss latency
system.l2.ReadCleanReq_avg_mshr_miss_latency::cpu0.inst 90110.552764                       # average ReadCleanReq mshr miss latency
system.l2.ReadCleanReq_avg_mshr_miss_latency::total 90110.552764                       # average ReadCleanReq mshr miss latency
system.l2.ReadSharedReq_avg_mshr_miss_latency::cpu0.data 70450.642621                       # average ReadSharedReq mshr miss latency
system.l2.ReadSharedReq_avg_mshr_miss_latency::total 70450.642621                       # average ReadSharedReq mshr miss latency
system.l2.demand_avg_mshr_miss_latency::cpu0.inst 90110.552764                       # average overall mshr miss latency
system.l2.demand_avg_mshr_miss_latency::cpu0.data 70319.649060                       # average overall mshr miss latency
system.l2.demand_avg_mshr_miss_latency::total 70363.540622                       # average overall mshr miss latency
system.l2.overall_avg_mshr_miss_latency::cpu0.inst 90110.552764                       # average overall mshr miss latency
system.l2.overall_avg_mshr_miss_latency::cpu0.data 70319.649060                       # average overall mshr miss latency
system.l2.overall_avg_mshr_miss_latency::total 70363.540622                       # average overall mshr miss latency
system.membus.snoop_filter.tot_requests        179681                       # Total number of requests made to the snoop filter.
system.membus.snoop_filter.hit_single_requests        89951                       # Number of requests hitting in the snoop filter with a single holder of the requested data.
system.membus.snoop_filter.hit_multi_requests            0                       # Number of requests hitting in the snoop filter with multiple (>1) holders of the requested data.
system.membus.snoop_filter.tot_snoops               0                       # Total number of snoops made to the snoop filter.
system.membus.snoop_filter.hit_single_snoops            0                       # Number of snoops hitting in the snoop filter with a single holder of the requested data.
system.membus.snoop_filter.hit_multi_snoops            0                       # Number of snoops hitting in the snoop filter with multiple (>1) holders of the requested data.
system.membus.pwrStateResidencyTicks::UNDEFINED  15267344125                       # Cumulative time (in ticks) in various power states
system.membus.trans_dist::ReadResp              78163                       # Transaction distribution
system.membus.trans_dist::CleanEvict            89951                       # Transaction distribution
system.membus.trans_dist::ReadExReq             11569                       # Transaction distribution
system.membus.trans_dist::ReadExResp            11569                       # Transaction distribution
system.membus.trans_dist::ReadSharedReq         78161                       # Transaction distribution
system.membus.pkt_count_system.l2.mem_side::system.mem_ctrls.port       269413                       # Packet count per connected master and slave (bytes)
system.membus.pkt_count_system.l2.mem_side::total       269413                       # Packet count per connected master and slave (bytes)
system.membus.pkt_count::total                 269413                       # Packet count per connected master and slave (bytes)
system.membus.pkt_size_system.l2.mem_side::system.mem_ctrls.port      5742848                       # Cumulative packet size per connected master and slave (bytes)
system.membus.pkt_size_system.l2.mem_side::total      5742848                       # Cumulative packet size per connected master and slave (bytes)
system.membus.pkt_size::total                 5742848                       # Cumulative packet size per connected master and slave (bytes)
system.membus.snoops                                0                       # Total snoops (count)
system.membus.snoopTraffic                          0                       # Total snoop traffic (bytes)
system.membus.snoop_fanout::samples             89730                       # Request fanout histogram
system.membus.snoop_fanout::mean                    0                       # Request fanout histogram
system.membus.snoop_fanout::stdev                   0                       # Request fanout histogram
system.membus.snoop_fanout::underflows              0      0.00%      0.00% # Request fanout histogram
system.membus.snoop_fanout::0                   89730    100.00%    100.00% # Request fanout histogram
system.membus.snoop_fanout::1                       0      0.00%    100.00% # Request fanout histogram
system.membus.snoop_fanout::overflows               0      0.00%    100.00% # Request fanout histogram
system.membus.snoop_fanout::min_value               0                       # Request fanout histogram
system.membus.snoop_fanout::max_value               0                       # Request fanout histogram
system.membus.snoop_fanout::total               89730                       # Request fanout histogram
system.membus.reqLayer12.occupancy          201805500                       # Layer occupancy (ticks)
system.membus.reqLayer12.utilization              1.3                       # Layer utilization (%)
system.membus.respLayer1.occupancy          471908500                       # Layer occupancy (ticks)
system.membus.respLayer1.utilization              3.1                       # Layer utilization (%)
system.tol2bus.snoop_filter.tot_requests       181682                       # Total number of requests made to the snoop filter.
system.tol2bus.snoop_filter.hit_single_requests        90843                       # Number of requests hitting in the snoop filter with a single holder of the requested data.
system.tol2bus.snoop_filter.hit_multi_requests            7                       # Number of requests hitting in the snoop filter with multiple (>1) holders of the requested data.
system.tol2bus.snoop_filter.tot_snoops              0                       # Total number of snoops made to the snoop filter.
system.tol2bus.snoop_filter.hit_single_snoops            0                       # Number of snoops hitting in the snoop filter with a single holder of the requested data.
system.tol2bus.snoop_filter.hit_multi_snoops            0                       # Number of snoops hitting in the snoop filter with multiple (>1) holders of the requested data.
system.tol2bus.pwrStateResidencyTicks::UNDEFINED  15267344125                       # Cumulative time (in ticks) in various power states
system.tol2bus.trans_dist::ReadResp             79263                       # Transaction distribution
system.tol2bus.trans_dist::WritebackDirty        21540                       # Transaction distribution
system.tol2bus.trans_dist::WritebackClean          248                       # Transaction distribution
system.tol2bus.trans_dist::CleanEvict          159005                       # Transaction distribution
system.tol2bus.trans_dist::ReadExReq            11579                       # Transaction distribution
system.tol2bus.trans_dist::ReadExResp           11579                       # Transaction distribution
system.tol2bus.trans_dist::ReadCleanReq           248                       # Transaction distribution
system.tol2bus.trans_dist::ReadSharedReq        79013                       # Transaction distribution
system.tol2bus.pkt_count_system.cpu0.icache.mem_side::system.l2.cpu_side          744                       # Packet count per connected master and slave (bytes)
system.tol2bus.pkt_count_system.cpu0.dcache.mem_side::system.l2.cpu_side       271780                       # Packet count per connected master and slave (bytes)
system.tol2bus.pkt_count::total                272524                       # Packet count per connected master and slave (bytes)
system.tol2bus.pkt_size_system.cpu0.icache.mem_side::system.l2.cpu_side        31744                       # Cumulative packet size per connected master and slave (bytes)
system.tol2bus.pkt_size_system.cpu0.dcache.mem_side::system.l2.cpu_side      7176576                       # Cumulative packet size per connected master and slave (bytes)
system.tol2bus.pkt_size::total                7208320                       # Cumulative packet size per connected master and slave (bytes)
system.tol2bus.snoops                           89951                       # Total snoops (count)
system.tol2bus.snoopTraffic                         0                       # Total snoop traffic (bytes)
system.tol2bus.snoop_fanout::samples           180791                       # Request fanout histogram
system.tol2bus.snoop_fanout::mean            0.000044                       # Request fanout histogram
system.tol2bus.snoop_fanout::stdev           0.006652                       # Request fanout histogram
system.tol2bus.snoop_fanout::underflows             0      0.00%      0.00% # Request fanout histogram
system.tol2bus.snoop_fanout::0                 180783    100.00%    100.00% # Request fanout histogram
system.tol2bus.snoop_fanout::1                      8      0.00%    100.00% # Request fanout histogram
system.tol2bus.snoop_fanout::2                      0      0.00%    100.00% # Request fanout histogram
system.tol2bus.snoop_fanout::3                      0      0.00%    100.00% # Request fanout histogram
system.tol2bus.snoop_fanout::4                      0      0.00%    100.00% # Request fanout histogram
system.tol2bus.snoop_fanout::5                      0      0.00%    100.00% # Request fanout histogram
system.tol2bus.snoop_fanout::6                      0      0.00%    100.00% # Request fanout histogram
system.tol2bus.snoop_fanout::7                      0      0.00%    100.00% # Request fanout histogram
system.tol2bus.snoop_fanout::8                      0      0.00%    100.00% # Request fanout histogram
system.tol2bus.snoop_fanout::9                      0      0.00%    100.00% # Request fanout histogram
system.tol2bus.snoop_fanout::10                     0      0.00%    100.00% # Request fanout histogram
system.tol2bus.snoop_fanout::11                     0      0.00%    100.00% # Request fanout histogram
system.tol2bus.snoop_fanout::12                     0      0.00%    100.00% # Request fanout histogram
system.tol2bus.snoop_fanout::13                     0      0.00%    100.00% # Request fanout histogram
system.tol2bus.snoop_fanout::14                     0      0.00%    100.00% # Request fanout histogram
system.tol2bus.snoop_fanout::15                     0      0.00%    100.00% # Request fanout histogram
system.tol2bus.snoop_fanout::16                     0      0.00%    100.00% # Request fanout histogram
system.tol2bus.snoop_fanout::17                     0      0.00%    100.00% # Request fanout histogram
system.tol2bus.snoop_fanout::18                     0      0.00%    100.00% # Request fanout histogram
system.tol2bus.snoop_fanout::19                     0      0.00%    100.00% # Request fanout histogram
system.tol2bus.snoop_fanout::20                     0      0.00%    100.00% # Request fanout histogram
system.tol2bus.snoop_fanout::21                     0      0.00%    100.00% # Request fanout histogram
system.tol2bus.snoop_fanout::22                     0      0.00%    100.00% # Request fanout histogram
system.tol2bus.snoop_fanout::23                     0      0.00%    100.00% # Request fanout histogram
system.tol2bus.snoop_fanout::24                     0      0.00%    100.00% # Request fanout histogram
system.tol2bus.snoop_fanout::overflows              0      0.00%    100.00% # Request fanout histogram
system.tol2bus.snoop_fanout::min_value              0                       # Request fanout histogram
system.tol2bus.snoop_fanout::max_value              1                       # Request fanout histogram
system.tol2bus.snoop_fanout::total             180791                       # Request fanout histogram
system.tol2bus.reqLayer0.occupancy          112629000                       # Layer occupancy (ticks)
system.tol2bus.reqLayer0.utilization              0.7                       # Layer utilization (%)
system.tol2bus.respLayer0.occupancy            372000                       # Layer occupancy (ticks)
system.tol2bus.respLayer0.utilization             0.0                       # Layer utilization (%)
system.tol2bus.respLayer1.occupancy         135891000                       # Layer occupancy (ticks)
system.tol2bus.respLayer1.utilization             0.9                       # Layer utilization (%)

---------- End Simulation Statistics   ----------
