
---------- Begin Simulation Statistics ----------
sim_seconds                                  0.015267                       # Number of seconds simulated
sim_ticks                                 15267344125                       # Number of ticks simulated
final_tick                               1633605821375                       # Number of ticks from beginning of simulation (restored from checkpoints and never reset)
sim_freq                                 1000000000000                       # Frequency of simulated ticks
host_inst_rate                               32191045                       # Simulator instruction rate (inst/s)
host_op_rate                                 58623521                       # Simulator op (including micro ops) rate (op/s)
host_tick_rate                              132328806                       # Simulator tick rate (ticks/s)
host_mem_usage                                3428856                       # Number of bytes of host memory used
host_seconds                                   115.37                       # Real time elapsed on the host
sim_insts                                  3714018902                       # Number of instructions simulated
sim_ops                                    6763647623                       # Number of ops (including micro ops) simulated
system.voltage_domain.voltage                       1                       # Voltage in Volts
system.clk_domain.clock                          1000                       # Clock period in ticks
system.mem_ctrls.pwrStateResidencyTicks::UNDEFINED  15267344125                       # Cumulative time (in ticks) in various power states
system.mem_ctrls.bytes_read::cpu0.inst          14464                       # Number of bytes read from this memory
system.mem_ctrls.bytes_read::cpu0.data       17530560                       # Number of bytes read from this memory
system.mem_ctrls.bytes_read::total           17545024                       # Number of bytes read from this memory
system.mem_ctrls.bytes_inst_read::cpu0.inst        14464                       # Number of instructions bytes read from this memory
system.mem_ctrls.bytes_inst_read::total         14464                       # Number of instructions bytes read from this memory
system.mem_ctrls.bytes_written::writebacks       879232                       # Number of bytes written to this memory
system.mem_ctrls.bytes_written::total          879232                       # Number of bytes written to this memory
system.mem_ctrls.num_reads::cpu0.inst             226                       # Number of read requests responded to by this memory
system.mem_ctrls.num_reads::cpu0.data          273915                       # Number of read requests responded to by this memory
system.mem_ctrls.num_reads::total              274141                       # Number of read requests responded to by this memory
system.mem_ctrls.num_writes::writebacks         13738                       # Number of write requests responded to by this memory
system.mem_ctrls.num_writes::total              13738                       # Number of write requests responded to by this memory
system.mem_ctrls.bw_read::cpu0.inst            947382                       # Total read bandwidth from this memory (bytes/s)
system.mem_ctrls.bw_read::cpu0.data        1148239003                       # Total read bandwidth from this memory (bytes/s)
system.mem_ctrls.bw_read::total            1149186385                       # Total read bandwidth from this memory (bytes/s)
system.mem_ctrls.bw_inst_read::cpu0.inst       947382                       # Instruction read bandwidth from this memory (bytes/s)
system.mem_ctrls.bw_inst_read::total           947382                       # Instruction read bandwidth from this memory (bytes/s)
system.mem_ctrls.bw_write::writebacks        57589060                       # Write bandwidth from this memory (bytes/s)
system.mem_ctrls.bw_write::total             57589060                       # Write bandwidth from this memory (bytes/s)
system.mem_ctrls.bw_total::writebacks        57589060                       # Total bandwidth to/from this memory (bytes/s)
system.mem_ctrls.bw_total::cpu0.inst           947382                       # Total bandwidth to/from this memory (bytes/s)
system.mem_ctrls.bw_total::cpu0.data       1148239003                       # Total bandwidth to/from this memory (bytes/s)
system.mem_ctrls.bw_total::total           1206775445                       # Total bandwidth to/from this memory (bytes/s)
system.mem_ctrls.readReqs                      274145                       # Number of read requests accepted
system.mem_ctrls.writeReqs                      13738                       # Number of write requests accepted
system.mem_ctrls.readBursts                    274145                       # Number of DRAM read bursts, including those serviced by the write queue
system.mem_ctrls.writeBursts                    13738                       # Number of DRAM write bursts, including those merged in the write queue
system.mem_ctrls.bytesReadDRAM               17545024                       # Total number of bytes read from DRAM
system.mem_ctrls.bytesReadWrQ                       0                       # Total number of bytes read from write queue
system.mem_ctrls.bytesWritten                  878784                       # Total number of bytes written to DRAM
system.mem_ctrls.bytesReadSys                17545280                       # Total read bytes from the system interface side
system.mem_ctrls.bytesWrittenSys               879232                       # Total written bytes from the system interface side
system.mem_ctrls.servicedByWrQ                      0                       # Number of DRAM read bursts serviced by the write queue
system.mem_ctrls.mergedWrBursts                     0                       # Number of DRAM write bursts merged with an existing one
system.mem_ctrls.neitherReadNorWriteReqs            0                       # Number of requests that are neither read nor write
system.mem_ctrls.perBankRdBursts::0             17177                       # Per bank write bursts
system.mem_ctrls.perBankRdBursts::1             17174                       # Per bank write bursts
system.mem_ctrls.perBankRdBursts::2             17188                       # Per bank write bursts
system.mem_ctrls.perBankRdBursts::3             17106                       # Per bank write bursts
system.mem_ctrls.perBankRdBursts::4             17055                       # Per bank write bursts
system.mem_ctrls.perBankRdBursts::5             17067                       # Per bank write bursts
system.mem_ctrls.perBankRdBursts::6             17066                       # Per bank write bursts
system.mem_ctrls.perBankRdBursts::7             17059                       # Per bank write bursts
system.mem_ctrls.perBankRdBursts::8             17057                       # Per bank write bursts
system.mem_ctrls.perBankRdBursts::9             17119                       # Per bank write bursts
system.mem_ctrls.perBankRdBursts::10            17157                       # Per bank write bursts
system.mem_ctrls.perBankRdBursts::11            17185                       # Per bank write bursts
system.mem_ctrls.perBankRdBursts::12            17235                       # Per bank write bursts
system.mem_ctrls.perBankRdBursts::13            17163                       # Per bank write bursts
system.mem_ctrls.perBankRdBursts::14            17169                       # Per bank write bursts
system.mem_ctrls.perBankRdBursts::15            17164                       # Per bank write bursts
system.mem_ctrls.perBankWrBursts::0               805                       # Per bank write bursts
system.mem_ctrls.perBankWrBursts::1               768                       # Per bank write bursts
system.mem_ctrls.perBankWrBursts::2               762                       # Per bank write bursts
system.mem_ctrls.perBankWrBursts::3               795                       # Per bank write bursts
system.mem_ctrls.perBankWrBursts::4               893                       # Per bank write bursts
system.mem_ctrls.perBankWrBursts::5               893                       # Per bank write bursts
system.mem_ctrls.perBankWrBursts::6               772                       # Per bank write bursts
system.mem_ctrls.perBankWrBursts::7               889                       # Per bank write bursts
system.mem_ctrls.perBankWrBursts::8               892                       # Per bank write bursts
system.mem_ctrls.perBankWrBursts::9               894                       # Per bank write bursts
system.mem_ctrls.perBankWrBursts::10              896                       # Per bank write bursts
system.mem_ctrls.perBankWrBursts::11              895                       # Per bank write bursts
system.mem_ctrls.perBankWrBursts::12              891                       # Per bank write bursts
system.mem_ctrls.perBankWrBursts::13              895                       # Per bank write bursts
system.mem_ctrls.perBankWrBursts::14              896                       # Per bank write bursts
system.mem_ctrls.perBankWrBursts::15              895                       # Per bank write bursts
system.mem_ctrls.numRdRetry                         0                       # Number of times read queue was full causing retry
system.mem_ctrls.numWrRetry                         0                       # Number of times write queue was full causing retry
system.mem_ctrls.totGap                   15267361500                       # Total gap between requests
system.mem_ctrls.readPktSize::0                     0                       # Read request sizes (log2)
system.mem_ctrls.readPktSize::1                     0                       # Read request sizes (log2)
system.mem_ctrls.readPktSize::2                     0                       # Read request sizes (log2)
system.mem_ctrls.readPktSize::3                     0                       # Read request sizes (log2)
system.mem_ctrls.readPktSize::4                     0                       # Read request sizes (log2)
system.mem_ctrls.readPktSize::5                     0                       # Read request sizes (log2)
system.mem_ctrls.readPktSize::6                274145                       # Read request sizes (log2)
system.mem_ctrls.writePktSize::0                    0                       # Write request sizes (log2)
system.mem_ctrls.writePktSize::1                    0                       # Write request sizes (log2)
system.mem_ctrls.writePktSize::2                    0                       # Write request sizes (log2)
system.mem_ctrls.writePktSize::3                    0                       # Write request sizes (log2)
system.mem_ctrls.writePktSize::4                    0                       # Write request sizes (log2)
system.mem_ctrls.writePktSize::5                    0                       # Write request sizes (log2)
system.mem_ctrls.writePktSize::6                13738                       # Write request sizes (log2)
system.mem_ctrls.rdQLenPdf::0                  149155                       # What read queue length does an incoming req see
system.mem_ctrls.rdQLenPdf::1                  124912                       # What read queue length does an incoming req see
system.mem_ctrls.rdQLenPdf::2                      54                       # What read queue length does an incoming req see
system.mem_ctrls.rdQLenPdf::3                      19                       # What read queue length does an incoming req see
system.mem_ctrls.rdQLenPdf::4                       4                       # What read queue length does an incoming req see
system.mem_ctrls.rdQLenPdf::5                       1                       # What read queue length does an incoming req see
system.mem_ctrls.rdQLenPdf::6                       0                       # What read queue length does an incoming req see
system.mem_ctrls.rdQLenPdf::7                       0                       # What read queue length does an incoming req see
system.mem_ctrls.rdQLenPdf::8                       0                       # What read queue length does an incoming req see
system.mem_ctrls.rdQLenPdf::9                       0                       # What read queue length does an incoming req see
system.mem_ctrls.rdQLenPdf::10                      0                       # What read queue length does an incoming req see
system.mem_ctrls.rdQLenPdf::11                      0                       # What read queue length does an incoming req see
system.mem_ctrls.rdQLenPdf::12                      0                       # What read queue length does an incoming req see
system.mem_ctrls.rdQLenPdf::13                      0                       # What read queue length does an incoming req see
system.mem_ctrls.rdQLenPdf::14                      0                       # What read queue length does an incoming req see
system.mem_ctrls.rdQLenPdf::15                      0                       # What read queue length does an incoming req see
system.mem_ctrls.rdQLenPdf::16                      0                       # What read queue length does an incoming req see
system.mem_ctrls.rdQLenPdf::17                      0                       # What read queue length does an incoming req see
system.mem_ctrls.rdQLenPdf::18                      0                       # What read queue length does an incoming req see
system.mem_ctrls.rdQLenPdf::19                      0                       # What read queue length does an incoming req see
system.mem_ctrls.rdQLenPdf::20                      0                       # What read queue length does an incoming req see
system.mem_ctrls.rdQLenPdf::21                      0                       # What read queue length does an incoming req see
system.mem_ctrls.rdQLenPdf::22                      0                       # What read queue length does an incoming req see
system.mem_ctrls.rdQLenPdf::23                      0                       # What read queue length does an incoming req see
system.mem_ctrls.rdQLenPdf::24                      0                       # What read queue length does an incoming req see
system.mem_ctrls.rdQLenPdf::25                      0                       # What read queue length does an incoming req see
system.mem_ctrls.rdQLenPdf::26                      0                       # What read queue length does an incoming req see
system.mem_ctrls.rdQLenPdf::27                      0                       # What read queue length does an incoming req see
system.mem_ctrls.rdQLenPdf::28                      0                       # What read queue length does an incoming req see
system.mem_ctrls.rdQLenPdf::29                      0                       # What read queue length does an incoming req see
system.mem_ctrls.rdQLenPdf::30                      0                       # What read queue length does an incoming req see
system.mem_ctrls.rdQLenPdf::31                      0                       # What read queue length does an incoming req see
system.mem_ctrls.wrQLenPdf::0                       0                       # What write queue length does an incoming req see
system.mem_ctrls.wrQLenPdf::1                       0                       # What write queue length does an incoming req see
system.mem_ctrls.wrQLenPdf::2                       0                       # What write queue length does an incoming req see
system.mem_ctrls.wrQLenPdf::3                       0                       # What write queue length does an incoming req see
system.mem_ctrls.wrQLenPdf::4                       0                       # What write queue length does an incoming req see
system.mem_ctrls.wrQLenPdf::5                       0                       # What write queue length does an incoming req see
system.mem_ctrls.wrQLenPdf::6                       0                       # What write queue length does an incoming req see
system.mem_ctrls.wrQLenPdf::7                       0                       # What write queue length does an incoming req see
system.mem_ctrls.wrQLenPdf::8                       0                       # What write queue length does an incoming req see
system.mem_ctrls.wrQLenPdf::9                       0                       # What write queue length does an incoming req see
system.mem_ctrls.wrQLenPdf::10                      0                       # What write queue length does an incoming req see
system.mem_ctrls.wrQLenPdf::11                      0                       # What write queue length does an incoming req see
system.mem_ctrls.wrQLenPdf::12                      0                       # What write queue length does an incoming req see
system.mem_ctrls.wrQLenPdf::13                      0                       # What write queue length does an incoming req see
system.mem_ctrls.wrQLenPdf::14                      0                       # What write queue length does an incoming req see
system.mem_ctrls.wrQLenPdf::15                      0                       # What write queue length does an incoming req see
system.mem_ctrls.wrQLenPdf::16                      1                       # What write queue length does an incoming req see
system.mem_ctrls.wrQLenPdf::17                    368                       # What write queue length does an incoming req see
system.mem_ctrls.wrQLenPdf::18                    870                       # What write queue length does an incoming req see
system.mem_ctrls.wrQLenPdf::19                    858                       # What write queue length does an incoming req see
system.mem_ctrls.wrQLenPdf::20                    859                       # What write queue length does an incoming req see
system.mem_ctrls.wrQLenPdf::21                    861                       # What write queue length does an incoming req see
system.mem_ctrls.wrQLenPdf::22                    859                       # What write queue length does an incoming req see
system.mem_ctrls.wrQLenPdf::23                    859                       # What write queue length does an incoming req see
system.mem_ctrls.wrQLenPdf::24                    870                       # What write queue length does an incoming req see
system.mem_ctrls.wrQLenPdf::25                    859                       # What write queue length does an incoming req see
system.mem_ctrls.wrQLenPdf::26                    859                       # What write queue length does an incoming req see
system.mem_ctrls.wrQLenPdf::27                    859                       # What write queue length does an incoming req see
system.mem_ctrls.wrQLenPdf::28                    976                       # What write queue length does an incoming req see
system.mem_ctrls.wrQLenPdf::29                   1113                       # What write queue length does an incoming req see
system.mem_ctrls.wrQLenPdf::30                    860                       # What write queue length does an incoming req see
system.mem_ctrls.wrQLenPdf::31                    859                       # What write queue length does an incoming req see
system.mem_ctrls.wrQLenPdf::32                    947                       # What write queue length does an incoming req see
system.mem_ctrls.wrQLenPdf::33                      1                       # What write queue length does an incoming req see
system.mem_ctrls.wrQLenPdf::34                      0                       # What write queue length does an incoming req see
system.mem_ctrls.wrQLenPdf::35                      0                       # What write queue length does an incoming req see
system.mem_ctrls.wrQLenPdf::36                      0                       # What write queue length does an incoming req see
system.mem_ctrls.wrQLenPdf::37                      0                       # What write queue length does an incoming req see
system.mem_ctrls.wrQLenPdf::38                      0                       # What write queue length does an incoming req see
system.mem_ctrls.wrQLenPdf::39                      0                       # What write queue length does an incoming req see
system.mem_ctrls.wrQLenPdf::40                      0                       # What write queue length does an incoming req see
system.mem_ctrls.wrQLenPdf::41                      0                       # What write queue length does an incoming req see
system.mem_ctrls.wrQLenPdf::42                      0                       # What write queue length does an incoming req see
system.mem_ctrls.wrQLenPdf::43                      0                       # What write queue length does an incoming req see
system.mem_ctrls.wrQLenPdf::44                      0                       # What write queue length does an incoming req see
system.mem_ctrls.wrQLenPdf::45                      0                       # What write queue length does an incoming req see
system.mem_ctrls.wrQLenPdf::46                      0                       # What write queue length does an incoming req see
system.mem_ctrls.wrQLenPdf::47                      0                       # What write queue length does an incoming req see
system.mem_ctrls.wrQLenPdf::48                      0                       # What write queue length does an incoming req see
system.mem_ctrls.wrQLenPdf::49                      0                       # What write queue length does an incoming req see
system.mem_ctrls.wrQLenPdf::50                      0                       # What write queue length does an incoming req see
system.mem_ctrls.wrQLenPdf::51                      0                       # What write queue length does an incoming req see
system.mem_ctrls.wrQLenPdf::52                      0                       # What write queue length does an incoming req see
system.mem_ctrls.wrQLenPdf::53                      0                       # What write queue length does an incoming req see
system.mem_ctrls.wrQLenPdf::54                      0                       # What write queue length does an incoming req see
system.mem_ctrls.wrQLenPdf::55                      0                       # What write queue length does an incoming req see
system.mem_ctrls.wrQLenPdf::56                      0                       # What write queue length does an incoming req see
system.mem_ctrls.wrQLenPdf::57                      0                       # What write queue length does an incoming req see
system.mem_ctrls.wrQLenPdf::58                      0                       # What write queue length does an incoming req see
system.mem_ctrls.wrQLenPdf::59                      0                       # What write queue length does an incoming req see
system.mem_ctrls.wrQLenPdf::60                      0                       # What write queue length does an incoming req see
system.mem_ctrls.wrQLenPdf::61                      0                       # What write queue length does an incoming req see
system.mem_ctrls.wrQLenPdf::62                      0                       # What write queue length does an incoming req see
system.mem_ctrls.wrQLenPdf::63                      0                       # What write queue length does an incoming req see
system.mem_ctrls.bytesPerActivate::samples        19744                       # Bytes accessed per row activation
system.mem_ctrls.bytesPerActivate::mean    933.147488                       # Bytes accessed per row activation
system.mem_ctrls.bytesPerActivate::gmean   884.474268                       # Bytes accessed per row activation
system.mem_ctrls.bytesPerActivate::stdev   218.239382                       # Bytes accessed per row activation
system.mem_ctrls.bytesPerActivate::0-127           92      0.47%      0.47% # Bytes accessed per row activation
system.mem_ctrls.bytesPerActivate::128-255          138      0.70%      1.16% # Bytes accessed per row activation
system.mem_ctrls.bytesPerActivate::256-383          806      4.08%      5.25% # Bytes accessed per row activation
system.mem_ctrls.bytesPerActivate::384-511          105      0.53%      5.78% # Bytes accessed per row activation
system.mem_ctrls.bytesPerActivate::512-639         1285      6.51%     12.29% # Bytes accessed per row activation
system.mem_ctrls.bytesPerActivate::640-767          125      0.63%     12.92% # Bytes accessed per row activation
system.mem_ctrls.bytesPerActivate::768-895          782      3.96%     16.88% # Bytes accessed per row activation
system.mem_ctrls.bytesPerActivate::896-1023           40      0.20%     17.08% # Bytes accessed per row activation
system.mem_ctrls.bytesPerActivate::1024-1151        16371     82.92%    100.00% # Bytes accessed per row activation
system.mem_ctrls.bytesPerActivate::total        19744                       # Bytes accessed per row activation
system.mem_ctrls.rdPerTurnAround::samples          858                       # Reads before turning the bus around for writes
system.mem_ctrls.rdPerTurnAround::mean      16.189977                       # Reads before turning the bus around for writes
system.mem_ctrls.rdPerTurnAround::gmean     16.080415                       # Reads before turning the bus around for writes
system.mem_ctrls.rdPerTurnAround::stdev      4.284791                       # Reads before turning the bus around for writes
system.mem_ctrls.rdPerTurnAround::8-15             18      2.10%      2.10% # Reads before turning the bus around for writes
system.mem_ctrls.rdPerTurnAround::16-23           839     97.79%     99.88% # Reads before turning the bus around for writes
system.mem_ctrls.rdPerTurnAround::136-143            1      0.12%    100.00% # Reads before turning the bus around for writes
system.mem_ctrls.rdPerTurnAround::total           858                       # Reads before turning the bus around for writes
system.mem_ctrls.wrPerTurnAround::samples          858                       # Writes before turning the bus around for reads
system.mem_ctrls.wrPerTurnAround::mean      16.003497                       # Writes before turning the bus around for reads
system.mem_ctrls.wrPerTurnAround::gmean     16.003205                       # Writes before turning the bus around for reads
system.mem_ctrls.wrPerTurnAround::stdev      0.102418                       # Writes before turning the bus around for reads
system.mem_ctrls.wrPerTurnAround::16              857     99.88%     99.88% # Writes before turning the bus around for reads
system.mem_ctrls.wrPerTurnAround::19                1      0.12%    100.00% # Writes before turning the bus around for reads
system.mem_ctrls.wrPerTurnAround::total           858                       # Writes before turning the bus around for reads
system.mem_ctrls.totQLat                   2504782500                       # Total ticks spent queuing
system.mem_ctrls.totMemAccLat              7644926250                       # Total ticks spent from burst creation until serviced by the DRAM
system.mem_ctrls.totBusLat                 1370705000                       # Total ticks spent in databus transfers
system.mem_ctrls.avgQLat                      9136.71                       # Average queueing delay per DRAM burst
system.mem_ctrls.avgBusLat                    4999.93                       # Average bus latency per DRAM burst
system.mem_ctrls.avgMemAccLat                27886.43                       # Average memory access latency per DRAM burst
system.mem_ctrls.avgRdBW                      1149.19                       # Average DRAM read bandwidth in MiByte/s
system.mem_ctrls.avgWrBW                        57.56                       # Average achieved write bandwidth in MiByte/s
system.mem_ctrls.avgRdBWSys                   1149.20                       # Average system read bandwidth in MiByte/s
system.mem_ctrls.avgWrBWSys                     57.59                       # Average system write bandwidth in MiByte/s
system.mem_ctrls.peakBW                      12800.00                       # Theoretical peak bandwidth in MiByte/s
system.mem_ctrls.busUtil                         9.43                       # Data bus utilization in percentage
system.mem_ctrls.busUtilRead                     8.98                       # Data bus utilization in percentage for reads
system.mem_ctrls.busUtilWrite                    0.45                       # Data bus utilization in percentage for writes
system.mem_ctrls.avgRdQLen                       1.70                       # Average read queue length when enqueuing
system.mem_ctrls.avgWrQLen                      26.99                       # Average write queue length when enqueuing
system.mem_ctrls.readRowHits                   255386                       # Number of row buffer hits during reads
system.mem_ctrls.writeRowHits                   12743                       # Number of row buffer hits during writes
system.mem_ctrls.readRowHitRate                 93.16                       # Row buffer hit rate for reads
system.mem_ctrls.writeRowHitRate                92.76                       # Row buffer hit rate for writes
system.mem_ctrls.avgGap                      53033.22                       # Average gap between requests
system.mem_ctrls.pageHitRate                    93.14                       # Row buffer hit rate, read and write combined
system.mem_ctrls_0.actEnergy                 70371840                       # Energy for activate commands per rank (pJ)
system.mem_ctrls_0.preEnergy                 37407315                       # Energy for precharge commands per rank (pJ)
system.mem_ctrls_0.readEnergy               977408880                       # Energy for read commands per rank (pJ)
system.mem_ctrls_0.writeEnergy               34331940                       # Energy for write commands per rank (pJ)
system.mem_ctrls_0.refreshEnergy         782436720.000000                       # Energy for refresh commands per rank (pJ)
system.mem_ctrls_0.actBackEnergy           1355186400                       # Energy for active background per rank (pJ)
system.mem_ctrls_0.preBackEnergy             71850720                       # Energy for precharge background per rank (pJ)
system.mem_ctrls_0.actPowerDownEnergy      2020865460                       # Energy for active power-down per rank (pJ)
system.mem_ctrls_0.prePowerDownEnergy       513464640                       # Energy for precharge power-down per rank (pJ)
system.mem_ctrls_0.selfRefreshEnergy       1596575940                       # Energy for self refresh per rank (pJ)
system.mem_ctrls_0.totalEnergy             7459899855                       # Total energy per rank (pJ)
system.mem_ctrls_0.averagePower            488.618046                       # Core power per rank (mW)
system.mem_ctrls_0.totalIdleTime          12108360750                       # Total Idle time Per DRAM Rank
system.mem_ctrls_0.memoryStateTime::IDLE     74290375                       # Time in different power states
system.mem_ctrls_0.memoryStateTime::REF     331796000                       # Time in different power states
system.mem_ctrls_0.memoryStateTime::SREF   6339463750                       # Time in different power states
system.mem_ctrls_0.memoryStateTime::PRE_PDN   1337138000                       # Time in different power states
system.mem_ctrls_0.memoryStateTime::ACT    2752897000                       # Time in different power states
system.mem_ctrls_0.memoryStateTime::ACT_PDN   4431759000                       # Time in different power states
system.mem_ctrls_1.actEnergy                 70593180                       # Energy for activate commands per rank (pJ)
system.mem_ctrls_1.preEnergy                 37521165                       # Energy for precharge commands per rank (pJ)
system.mem_ctrls_1.readEnergy               979957860                       # Energy for read commands per rank (pJ)
system.mem_ctrls_1.writeEnergy               37343880                       # Energy for write commands per rank (pJ)
system.mem_ctrls_1.refreshEnergy         785509920.000000                       # Energy for refresh commands per rank (pJ)
system.mem_ctrls_1.actBackEnergy           1362270360                       # Energy for active background per rank (pJ)
system.mem_ctrls_1.preBackEnergy             72013920                       # Energy for precharge background per rank (pJ)
system.mem_ctrls_1.actPowerDownEnergy      2032800120                       # Energy for active power-down per rank (pJ)
system.mem_ctrls_1.prePowerDownEnergy       514244640                       # Energy for precharge power-down per rank (pJ)
system.mem_ctrls_1.selfRefreshEnergy       1585424400                       # Energy for self refresh per rank (pJ)
system.mem_ctrls_1.totalEnergy             7477679445                       # Total energy per rank (pJ)
system.mem_ctrls_1.averagePower            489.782596                       # Core power per rank (mW)
system.mem_ctrls_1.totalIdleTime          11616953500                       # Total Idle time Per DRAM Rank
system.mem_ctrls_1.memoryStateTime::IDLE     74346000                       # Time in different power states
system.mem_ctrls_1.memoryStateTime::REF     333090000                       # Time in different power states
system.mem_ctrls_1.memoryStateTime::SREF   6295300375                       # Time in different power states
system.mem_ctrls_1.memoryStateTime::PRE_PDN   1339180750                       # Time in different power states
system.mem_ctrls_1.memoryStateTime::ACT    2767449500                       # Time in different power states
system.mem_ctrls_1.memoryStateTime::ACT_PDN   4457977500                       # Time in different power states
system.pwrStateResidencyTicks::UNDEFINED  15267344125                       # Cumulative time (in ticks) in various power states
system.cpu0.branchPred.lookups                4273103                       # Number of BP lookups
system.cpu0.branchPred.condPredicted          4273103                       # Number of conditional branches predicted
system.cpu0.branchPred.condIncorrect             6712                       # Number of conditional branches incorrect
system.cpu0.branchPred.BTBLookups             4272064                       # Number of BTB lookups
system.cpu0.branchPred.BTBHits                      0                       # Number of BTB hits
system.cpu0.branchPred.BTBCorrect                   0                       # Number of correct BTB predictions (this stat may not work properly.
system.cpu0.branchPred.BTBHitPct             0.000000                       # BTB Hit Percentage
system.cpu0.branchPred.usedRAS                    942                       # Number of times the RAS was used to get a target.
system.cpu0.branchPred.RASInCorrect               215                       # Number of incorrect RAS predictions.
system.cpu0.branchPred.indirectLookups        4272064                       # Number of indirect predictor lookups.
system.cpu0.branchPred.indirectHits           4237848                       # Number of indirect target hits.
system.cpu0.branchPred.indirectMisses           34216                       # Number of indirect misses.
system.cpu0.branchPredindirectMispredicted         1205                       # Number of mispredicted indirect branches.
system.cpu_voltage_domain.voltage                   1                       # Voltage in Volts
system.cpu_clk_domain.clock                       500                       # Clock period in ticks
system.cpu0.dtb.walker.pwrStateResidencyTicks::UNDEFINED  15267344125                       # Cumulative time (in ticks) in various power states
system.cpu0.dtb.rdAccesses                    4363697                       # TLB accesses on read requests
system.cpu0.dtb.wrAccesses                     360535                       # TLB accesses on write requests
system.cpu0.dtb.rdMisses                         4101                       # TLB misses on read requests
system.cpu0.dtb.wrMisses                          753                       # TLB misses on write requests
system.cpu0.apic_clk_domain.clock                8000                       # Clock period in ticks
system.cpu0.interrupts.pwrStateResidencyTicks::UNDEFINED  15267344125                       # Cumulative time (in ticks) in various power states
system.cpu0.itb.walker.pwrStateResidencyTicks::UNDEFINED  15267344125                       # Cumulative time (in ticks) in various power states
system.cpu0.itb.rdAccesses                          0                       # TLB accesses on read requests
system.cpu0.itb.wrAccesses                      33136                       # TLB accesses on write requests
system.cpu0.itb.rdMisses                            0                       # TLB misses on read requests
system.cpu0.itb.wrMisses                           66                       # TLB misses on write requests
system.cpu0.workload.numSyscalls                    9                       # Number of system calls
system.cpu0.pwrStateResidencyTicks::ON    15267344125                       # Cumulative time (in ticks) in various power states
system.cpu0.numCycles                        30534688                       # number of cpu cycles simulated
system.cpu0.numWorkItemsStarted                     0                       # number of work items this cpu started
system.cpu0.numWorkItemsCompleted                   0                       # number of work items this cpu completed
system.cpu0.fetch.icacheStallCycles             44298                       # Number of cycles fetch is stalled on an Icache miss
system.cpu0.fetch.Insts                      21819009                       # Number of instructions fetch has processed
system.cpu0.fetch.Branches                    4273103                       # Number of branches that fetch encountered
system.cpu0.fetch.predictedBranches           4238790                       # Number of branches that fetch has predicted taken
system.cpu0.fetch.Cycles                     30466276                       # Number of cycles fetch has run and was not squashing or blocked
system.cpu0.fetch.SquashCycles                  13618                       # Number of cycles fetch has spent squashing
system.cpu0.fetch.MiscStallCycles                  65                       # Number of cycles fetch has spent waiting on interrupts, or bad addresses, or out of MSHRs
system.cpu0.fetch.PendingTrapStallCycles          394                       # Number of stall cycles due to pending traps
system.cpu0.fetch.IcacheWaitRetryStallCycles           32                       # Number of stall cycles due to full MSHR
system.cpu0.fetch.CacheLines                    33070                       # Number of cache lines fetched
system.cpu0.fetch.IcacheSquashes                  603                       # Number of outstanding Icache misses that were squashed
system.cpu0.fetch.rateDist::samples          30517874                       # Number of instructions fetched each cycle (Total)
system.cpu0.fetch.rateDist::mean             1.269732                       # Number of instructions fetched each cycle (Total)
system.cpu0.fetch.rateDist::stdev            2.625434                       # Number of instructions fetched each cycle (Total)
system.cpu0.fetch.rateDist::underflows              0      0.00%      0.00% # Number of instructions fetched each cycle (Total)
system.cpu0.fetch.rateDist::0                22003744     72.10%     72.10% # Number of instructions fetched each cycle (Total)
system.cpu0.fetch.rateDist::1                 3044021      9.97%     82.08% # Number of instructions fetched each cycle (Total)
system.cpu0.fetch.rateDist::2                  368880      1.21%     83.28% # Number of instructions fetched each cycle (Total)
system.cpu0.fetch.rateDist::3                  438907      1.44%     84.72% # Number of instructions fetched each cycle (Total)
system.cpu0.fetch.rateDist::4                  371831      1.22%     85.94% # Number of instructions fetched each cycle (Total)
system.cpu0.fetch.rateDist::5                  329629      1.08%     87.02% # Number of instructions fetched each cycle (Total)
system.cpu0.fetch.rateDist::6                  486757      1.59%     88.62% # Number of instructions fetched each cycle (Total)
system.cpu0.fetch.rateDist::7                  197824      0.65%     89.26% # Number of instructions fetched each cycle (Total)
system.cpu0.fetch.rateDist::8                 3276281     10.74%    100.00% # Number of instructions fetched each cycle (Total)
system.cpu0.fetch.rateDist::overflows               0      0.00%    100.00% # Number of instructions fetched each cycle (Total)
system.cpu0.fetch.rateDist::min_value               0                       # Number of instructions fetched each cycle (Total)
system.cpu0.fetch.rateDist::max_value               8                       # Number of instructions fetched each cycle (Total)
system.cpu0.fetch.rateDist::total            30517874                       # Number of instructions fetched each cycle (Total)
system.cpu0.fetch.branchRate                 0.139943                       # Number of branch fetches per cycle
system.cpu0.fetch.rate                       0.714565                       # Number of inst fetches per cycle
system.cpu0.decode.IdleCycles                 1273831                       # Number of cycles decode is idle
system.cpu0.decode.BlockedCycles             24384072                       # Number of cycles decode is blocked
system.cpu0.decode.RunCycles                  1905356                       # Number of cycles decode is running
system.cpu0.decode.UnblockCycles              2947806                       # Number of cycles decode is unblocking
system.cpu0.decode.SquashCycles                  6809                       # Number of cycles decode is squashing
system.cpu0.decode.DecodedInsts              38584255                       # Number of instructions handled by decode
system.cpu0.rename.SquashCycles                  6809                       # Number of cycles rename is squashing
system.cpu0.rename.IdleCycles                 2324102                       # Number of cycles rename is idle
system.cpu0.rename.BlockCycles               17042438                       # Number of cycles rename is blocking
system.cpu0.rename.serializeStallCycles          1537                       # count of cycles rename stalled for serializing inst
system.cpu0.rename.RunCycles                  3802720                       # Number of cycles rename is running
system.cpu0.rename.UnblockCycles              7340268                       # Number of cycles rename is unblocking
system.cpu0.rename.RenamedInsts              38536563                       # Number of instructions processed by rename
system.cpu0.rename.ROBFullEvents              1437635                       # Number of times rename has blocked due to ROB full
system.cpu0.rename.IQFullEvents               2064771                       # Number of times rename has blocked due to IQ full
system.cpu0.rename.LQFullEvents                     5                       # Number of times rename has blocked due to LQ full
system.cpu0.rename.SQFullEvents               2938133                       # Number of times rename has blocked due to SQ full
system.cpu0.rename.RenamedOperands           63299480                       # Number of destination operands rename has renamed
system.cpu0.rename.RenameLookups             86527163                       # Number of register rename lookups that rename has made
system.cpu0.rename.int_rename_lookups        51786132                       # Number of integer rename lookups
system.cpu0.rename.fp_rename_lookups           184568                       # Number of floating rename lookups
system.cpu0.rename.CommittedMaps             63014248                       # Number of HB maps that are committed
system.cpu0.rename.UndoneMaps                  285400                       # Number of HB maps that are undone due to squashing
system.cpu0.rename.serializingInsts                37                       # count of serializing insts renamed
system.cpu0.rename.tempSerializingInsts            38                       # count of temporary serializing insts renamed
system.cpu0.rename.skidInsts                 14084655                       # count of insts added to the skid buffer
system.cpu0.memDep0.insertedLoads             4381826                       # Number of loads inserted to the mem dependence unit.
system.cpu0.memDep0.insertedStores             377994                       # Number of stores inserted to the mem dependence unit.
system.cpu0.memDep0.conflictingLoads              396                       # Number of conflicting loads.
system.cpu0.memDep0.conflictingStores             348                       # Number of conflicting stores.
system.cpu0.iq.iqInstsAdded                  38513875                       # Number of instructions added to the IQ (excludes non-spec)
system.cpu0.iq.iqNonSpecInstsAdded                360                       # Number of non-speculative instructions added to the IQ
system.cpu0.iq.iqInstsIssued                 38463431                       # Number of instructions issued
system.cpu0.iq.iqSquashedInstsIssued              530                       # Number of squashed instructions issued
system.cpu0.iq.iqSquashedInstsExamined         196965                       # Number of squashed instructions iterated over during squash; mainly for profiling
system.cpu0.iq.iqSquashedOperandsExamined       244232                       # Number of squashed operands that are examined and possibly removed from graph
system.cpu0.iq.iqSquashedNonSpecRemoved           321                       # Number of squashed non-spec instructions that were removed
system.cpu0.iq.issued_per_cycle::samples     30517874                       # Number of insts issued each cycle
system.cpu0.iq.issued_per_cycle::mean        1.260357                       # Number of insts issued each cycle
system.cpu0.iq.issued_per_cycle::stdev       1.964494                       # Number of insts issued each cycle
system.cpu0.iq.issued_per_cycle::underflows            0      0.00%      0.00% # Number of insts issued each cycle
system.cpu0.iq.issued_per_cycle::0           19457232     63.76%     63.76% # Number of insts issued each cycle
system.cpu0.iq.issued_per_cycle::1            1932747      6.33%     70.09% # Number of insts issued each cycle
system.cpu0.iq.issued_per_cycle::2            1429296      4.68%     74.77% # Number of insts issued each cycle
system.cpu0.iq.issued_per_cycle::3            2360827      7.74%     82.51% # Number of insts issued each cycle
system.cpu0.iq.issued_per_cycle::4            2299846      7.54%     90.05% # Number of insts issued each cycle
system.cpu0.iq.issued_per_cycle::5            1027361      3.37%     93.41% # Number of insts issued each cycle
system.cpu0.iq.issued_per_cycle::6            1832371      6.00%     99.42% # Number of insts issued each cycle
system.cpu0.iq.issued_per_cycle::7             166356      0.55%     99.96% # Number of insts issued each cycle
system.cpu0.iq.issued_per_cycle::8              11838      0.04%    100.00% # Number of insts issued each cycle
system.cpu0.iq.issued_per_cycle::overflows            0      0.00%    100.00% # Number of insts issued each cycle
system.cpu0.iq.issued_per_cycle::min_value            0                       # Number of insts issued each cycle
system.cpu0.iq.issued_per_cycle::max_value            8                       # Number of insts issued each cycle
system.cpu0.iq.issued_per_cycle::total       30517874                       # Number of insts issued each cycle
system.cpu0.iq.fu_full::No_OpClass                  0      0.00%      0.00% # attempts to use FU when none available
system.cpu0.iq.fu_full::IntAlu                   7864     73.74%     73.74% # attempts to use FU when none available
system.cpu0.iq.fu_full::IntMult                     0      0.00%     73.74% # attempts to use FU when none available
system.cpu0.iq.fu_full::IntDiv                      0      0.00%     73.74% # attempts to use FU when none available
system.cpu0.iq.fu_full::FloatAdd                   30      0.28%     74.02% # attempts to use FU when none available
system.cpu0.iq.fu_full::FloatCmp                    0      0.00%     74.02% # attempts to use FU when none available
system.cpu0.iq.fu_full::FloatCvt                    0      0.00%     74.02% # attempts to use FU when none available
system.cpu0.iq.fu_full::FloatMult                   0      0.00%     74.02% # attempts to use FU when none available
system.cpu0.iq.fu_full::FloatMultAcc                0      0.00%     74.02% # attempts to use FU when none available
system.cpu0.iq.fu_full::FloatDiv                    0      0.00%     74.02% # attempts to use FU when none available
system.cpu0.iq.fu_full::FloatMisc                   0      0.00%     74.02% # attempts to use FU when none available
system.cpu0.iq.fu_full::FloatSqrt                   0      0.00%     74.02% # attempts to use FU when none available
system.cpu0.iq.fu_full::SimdAdd                     0      0.00%     74.02% # attempts to use FU when none available
system.cpu0.iq.fu_full::SimdAddAcc                  0      0.00%     74.02% # attempts to use FU when none available
system.cpu0.iq.fu_full::SimdAlu                     0      0.00%     74.02% # attempts to use FU when none available
system.cpu0.iq.fu_full::SimdCmp                     0      0.00%     74.02% # attempts to use FU when none available
system.cpu0.iq.fu_full::SimdCvt                     0      0.00%     74.02% # attempts to use FU when none available
system.cpu0.iq.fu_full::SimdMisc                    0      0.00%     74.02% # attempts to use FU when none available
system.cpu0.iq.fu_full::SimdMult                    0      0.00%     74.02% # attempts to use FU when none available
system.cpu0.iq.fu_full::SimdMultAcc                 0      0.00%     74.02% # attempts to use FU when none available
system.cpu0.iq.fu_full::SimdShift                   0      0.00%     74.02% # attempts to use FU when none available
system.cpu0.iq.fu_full::SimdShiftAcc                0      0.00%     74.02% # attempts to use FU when none available
system.cpu0.iq.fu_full::SimdSqrt                    0      0.00%     74.02% # attempts to use FU when none available
system.cpu0.iq.fu_full::SimdFloatAdd                0      0.00%     74.02% # attempts to use FU when none available
system.cpu0.iq.fu_full::SimdFloatAlu                0      0.00%     74.02% # attempts to use FU when none available
system.cpu0.iq.fu_full::SimdFloatCmp                0      0.00%     74.02% # attempts to use FU when none available
system.cpu0.iq.fu_full::SimdFloatCvt                0      0.00%     74.02% # attempts to use FU when none available
system.cpu0.iq.fu_full::SimdFloatDiv                0      0.00%     74.02% # attempts to use FU when none available
system.cpu0.iq.fu_full::SimdFloatMisc               0      0.00%     74.02% # attempts to use FU when none available
system.cpu0.iq.fu_full::SimdFloatMult               0      0.00%     74.02% # attempts to use FU when none available
system.cpu0.iq.fu_full::SimdFloatMultAcc            0      0.00%     74.02% # attempts to use FU when none available
system.cpu0.iq.fu_full::SimdFloatSqrt               0      0.00%     74.02% # attempts to use FU when none available
system.cpu0.iq.fu_full::MemRead                   721      6.76%     80.78% # attempts to use FU when none available
system.cpu0.iq.fu_full::MemWrite                 1991     18.67%     99.45% # attempts to use FU when none available
system.cpu0.iq.fu_full::FloatMemRead                2      0.02%     99.47% # attempts to use FU when none available
system.cpu0.iq.fu_full::FloatMemWrite              57      0.53%    100.00% # attempts to use FU when none available
system.cpu0.iq.fu_full::IprAccess                   0      0.00%    100.00% # attempts to use FU when none available
system.cpu0.iq.fu_full::InstPrefetch                0      0.00%    100.00% # attempts to use FU when none available
system.cpu0.iq.FU_type_0::No_OpClass            16511      0.04%      0.04% # Type of FU issued
system.cpu0.iq.FU_type_0::IntAlu             33705172     87.63%     87.67% # Type of FU issued
system.cpu0.iq.FU_type_0::IntMult                5174      0.01%     87.69% # Type of FU issued
system.cpu0.iq.FU_type_0::IntDiv                   21      0.00%     87.69% # Type of FU issued
system.cpu0.iq.FU_type_0::FloatAdd               1034      0.00%     87.69% # Type of FU issued
system.cpu0.iq.FU_type_0::FloatCmp                  0      0.00%     87.69% # Type of FU issued
system.cpu0.iq.FU_type_0::FloatCvt                  0      0.00%     87.69% # Type of FU issued
system.cpu0.iq.FU_type_0::FloatMult                 0      0.00%     87.69% # Type of FU issued
system.cpu0.iq.FU_type_0::FloatMultAcc              0      0.00%     87.69% # Type of FU issued
system.cpu0.iq.FU_type_0::FloatDiv                  0      0.00%     87.69% # Type of FU issued
system.cpu0.iq.FU_type_0::FloatMisc                 0      0.00%     87.69% # Type of FU issued
system.cpu0.iq.FU_type_0::FloatSqrt                 0      0.00%     87.69% # Type of FU issued
system.cpu0.iq.FU_type_0::SimdAdd                   0      0.00%     87.69% # Type of FU issued
system.cpu0.iq.FU_type_0::SimdAddAcc                0      0.00%     87.69% # Type of FU issued
system.cpu0.iq.FU_type_0::SimdAlu                   0      0.00%     87.69% # Type of FU issued
system.cpu0.iq.FU_type_0::SimdCmp                   0      0.00%     87.69% # Type of FU issued
system.cpu0.iq.FU_type_0::SimdCvt                   0      0.00%     87.69% # Type of FU issued
system.cpu0.iq.FU_type_0::SimdMisc                  0      0.00%     87.69% # Type of FU issued
system.cpu0.iq.FU_type_0::SimdMult                  0      0.00%     87.69% # Type of FU issued
system.cpu0.iq.FU_type_0::SimdMultAcc               0      0.00%     87.69% # Type of FU issued
system.cpu0.iq.FU_type_0::SimdShift                 0      0.00%     87.69% # Type of FU issued
system.cpu0.iq.FU_type_0::SimdShiftAcc              0      0.00%     87.69% # Type of FU issued
system.cpu0.iq.FU_type_0::SimdSqrt                  0      0.00%     87.69% # Type of FU issued
system.cpu0.iq.FU_type_0::SimdFloatAdd              0      0.00%     87.69% # Type of FU issued
system.cpu0.iq.FU_type_0::SimdFloatAlu              0      0.00%     87.69% # Type of FU issued
system.cpu0.iq.FU_type_0::SimdFloatCmp              0      0.00%     87.69% # Type of FU issued
system.cpu0.iq.FU_type_0::SimdFloatCvt              0      0.00%     87.69% # Type of FU issued
system.cpu0.iq.FU_type_0::SimdFloatDiv              0      0.00%     87.69% # Type of FU issued
system.cpu0.iq.FU_type_0::SimdFloatMisc             0      0.00%     87.69% # Type of FU issued
system.cpu0.iq.FU_type_0::SimdFloatMult             0      0.00%     87.69% # Type of FU issued
system.cpu0.iq.FU_type_0::SimdFloatMultAcc            0      0.00%     87.69% # Type of FU issued
system.cpu0.iq.FU_type_0::SimdFloatSqrt             0      0.00%     87.69% # Type of FU issued
system.cpu0.iq.FU_type_0::MemRead             4374362     11.37%     99.06% # Type of FU issued
system.cpu0.iq.FU_type_0::MemWrite             179834      0.47%     99.53% # Type of FU issued
system.cpu0.iq.FU_type_0::FloatMemRead            195      0.00%     99.53% # Type of FU issued
system.cpu0.iq.FU_type_0::FloatMemWrite        181128      0.47%    100.00% # Type of FU issued
system.cpu0.iq.FU_type_0::IprAccess                 0      0.00%    100.00% # Type of FU issued
system.cpu0.iq.FU_type_0::InstPrefetch              0      0.00%    100.00% # Type of FU issued
system.cpu0.iq.FU_type_0::total              38463431                       # Type of FU issued
system.cpu0.iq.rate                          1.259663                       # Inst issue rate
system.cpu0.iq.fu_busy_cnt                      10665                       # FU busy when requested
system.cpu0.iq.fu_busy_rate                  0.000277                       # FU busy rate (busy events/executed inst)
system.cpu0.iq.int_inst_queue_reads         107090798                       # Number of integer instruction queue reads
system.cpu0.iq.int_inst_queue_writes         38527053                       # Number of integer instruction queue writes
system.cpu0.iq.int_inst_queue_wakeup_accesses     38240122                       # Number of integer instruction queue wakeup accesses
system.cpu0.iq.fp_inst_queue_reads             365133                       # Number of floating instruction queue reads
system.cpu0.iq.fp_inst_queue_writes            184193                       # Number of floating instruction queue writes
system.cpu0.iq.fp_inst_queue_wakeup_accesses       182440                       # Number of floating instruction queue wakeup accesses
system.cpu0.iq.vec_inst_queue_reads                 0                       # Number of vector instruction queue reads
system.cpu0.iq.vec_inst_queue_writes                0                       # Number of vector instruction queue writes
system.cpu0.iq.vec_inst_queue_wakeup_accesses            0                       # Number of vector instruction queue wakeup accesses
system.cpu0.iq.int_alu_accesses              38274994                       # Number of integer alu accesses
system.cpu0.iq.fp_alu_accesses                 182591                       # Number of floating point alu accesses
system.cpu0.iq.vec_alu_accesses                     0                       # Number of vector alu accesses
system.cpu0.iew.lsq.thread0.forwLoads             707                       # Number of loads that had data forwarded from stores
system.cpu0.iew.lsq.thread0.invAddrLoads            0                       # Number of loads ignored due to an invalid address
system.cpu0.iew.lsq.thread0.squashedLoads        36596                       # Number of loads squashed
system.cpu0.iew.lsq.thread0.ignoredResponses           15                       # Number of memory responses ignored because the instruction is squashed
system.cpu0.iew.lsq.thread0.memOrderViolation           49                       # Number of memory ordering violations
system.cpu0.iew.lsq.thread0.squashedStores        18904                       # Number of stores squashed
system.cpu0.iew.lsq.thread0.invAddrSwpfs            0                       # Number of software prefetches ignored due to an invalid address
system.cpu0.iew.lsq.thread0.blockedLoads            0                       # Number of blocked loads due to partial load-store forwarding
system.cpu0.iew.lsq.thread0.rescheduledLoads            3                       # Number of loads that were rescheduled
system.cpu0.iew.lsq.thread0.cacheBlocked           45                       # Number of times an access to memory failed due to the cache being blocked
system.cpu0.iew.iewIdleCycles                       0                       # Number of cycles IEW is idle
system.cpu0.iew.iewSquashCycles                  6809                       # Number of cycles IEW is squashing
system.cpu0.iew.iewBlockCycles               13820599                       # Number of cycles IEW is blocking
system.cpu0.iew.iewUnblockCycles              1969462                       # Number of cycles IEW is unblocking
system.cpu0.iew.iewDispatchedInsts           38514235                       # Number of instructions dispatched to IQ
system.cpu0.iew.iewDispSquashedInsts               58                       # Number of squashed instructions skipped by dispatch
system.cpu0.iew.iewDispLoadInsts              4381826                       # Number of dispatched load instructions
system.cpu0.iew.iewDispStoreInsts              377994                       # Number of dispatched store instructions
system.cpu0.iew.iewDispNonSpecInsts               142                       # Number of dispatched non-speculative instructions
system.cpu0.iew.iewIQFullEvents                125111                       # Number of times the IQ has become full, causing a stall
system.cpu0.iew.iewLSQFullEvents              1719262                       # Number of times the LSQ has become full, causing a stall
system.cpu0.iew.memOrderViolationEvents            49                       # Number of memory order violations
system.cpu0.iew.predictedTakenIncorrect          5536                       # Number of branches that were predicted taken incorrectly
system.cpu0.iew.predictedNotTakenIncorrect         1695                       # Number of branches that were predicted not taken incorrectly
system.cpu0.iew.branchMispredicts                7231                       # Number of branch mispredicts detected at execute
system.cpu0.iew.iewExecutedInsts             38429258                       # Number of executed instructions
system.cpu0.iew.iewExecLoadInsts              4363665                       # Number of load instructions executed
system.cpu0.iew.iewExecSquashedInsts            34173                       # Number of squashed instructions skipped in execute
system.cpu0.iew.exec_swp                            0                       # number of swp insts executed
system.cpu0.iew.exec_nop                            0                       # number of nop insts executed
system.cpu0.iew.exec_refs                     4724197                       # number of memory reference insts executed
system.cpu0.iew.exec_branches                 4241102                       # Number of branches executed
system.cpu0.iew.exec_stores                    360532                       # Number of stores executed
system.cpu0.iew.exec_rate                    1.258544                       # Inst execution rate
system.cpu0.iew.wb_sent                      38428424                       # cumulative count of insts sent to commit
system.cpu0.iew.wb_count                     38422562                       # cumulative count of insts written-back
system.cpu0.iew.wb_producers                 31449036                       # num instructions producing a value
system.cpu0.iew.wb_consumers                 45534108                       # num instructions consuming a value
system.cpu0.iew.wb_rate                      1.258325                       # insts written-back per cycle
system.cpu0.iew.wb_fanout                    0.690670                       # average fanout of values written-back
system.cpu0.commit.commitSquashedInsts         197011                       # The number of squashed insts skipped by commit
system.cpu0.commit.commitNonSpecStalls             39                       # The number of times commit has been forced to stall to communicate backwards
system.cpu0.commit.branchMispredicts             6771                       # The number of times a branch was mispredicted
system.cpu0.commit.committed_per_cycle::samples     30490463                       # Number of insts commited each cycle
system.cpu0.commit.committed_per_cycle::mean     1.256697                       # Number of insts commited each cycle
system.cpu0.commit.committed_per_cycle::stdev     2.048752                       # Number of insts commited each cycle
system.cpu0.commit.committed_per_cycle::underflows            0      0.00%      0.00% # Number of insts commited each cycle
system.cpu0.commit.committed_per_cycle::0     21621352     70.91%     70.91% # Number of insts commited each cycle
system.cpu0.commit.committed_per_cycle::1       465561      1.53%     72.44% # Number of insts commited each cycle
system.cpu0.commit.committed_per_cycle::2       124533      0.41%     72.85% # Number of insts commited each cycle
system.cpu0.commit.committed_per_cycle::3       198080      0.65%     73.50% # Number of insts commited each cycle
system.cpu0.commit.committed_per_cycle::4      3883615     12.74%     86.23% # Number of insts commited each cycle
system.cpu0.commit.committed_per_cycle::5      4030021     13.22%     99.45% # Number of insts commited each cycle
system.cpu0.commit.committed_per_cycle::6         4885      0.02%     99.47% # Number of insts commited each cycle
system.cpu0.commit.committed_per_cycle::7         4791      0.02%     99.48% # Number of insts commited each cycle
system.cpu0.commit.committed_per_cycle::8       157625      0.52%    100.00% # Number of insts commited each cycle
system.cpu0.commit.committed_per_cycle::overflows            0      0.00%    100.00% # Number of insts commited each cycle
system.cpu0.commit.committed_per_cycle::min_value            0                       # Number of insts commited each cycle
system.cpu0.commit.committed_per_cycle::max_value            8                       # Number of insts commited each cycle
system.cpu0.commit.committed_per_cycle::total     30490463                       # Number of insts commited each cycle
system.cpu0.commit.committedInsts            21530902                       # Number of instructions committed
system.cpu0.commit.committedOps              38317279                       # Number of ops (including micro ops) committed
system.cpu0.commit.swp_count                        0                       # Number of s/w prefetches committed
system.cpu0.commit.refs                       4704281                       # Number of memory references committed
system.cpu0.commit.loads                      4345221                       # Number of loads committed
system.cpu0.commit.membars                         20                       # Number of memory barriers committed
system.cpu0.commit.branches                   4229009                       # Number of branches committed
system.cpu0.commit.vec_insts                        0                       # Number of committed Vector instructions.
system.cpu0.commit.fp_insts                    181915                       # Number of committed floating point instructions.
system.cpu0.commit.int_insts                 38300620                       # Number of committed integer instructions.
system.cpu0.commit.function_calls                 328                       # Number of function calls committed.
system.cpu0.commit.op_class_0::No_OpClass        15962      0.04%      0.04% # Class of committed instruction
system.cpu0.commit.op_class_0::IntAlu        33591157     87.67%     87.71% # Class of committed instruction
system.cpu0.commit.op_class_0::IntMult           5164      0.01%     87.72% # Class of committed instruction
system.cpu0.commit.op_class_0::IntDiv               7      0.00%     87.72% # Class of committed instruction
system.cpu0.commit.op_class_0::FloatAdd           708      0.00%     87.72% # Class of committed instruction
system.cpu0.commit.op_class_0::FloatCmp             0      0.00%     87.72% # Class of committed instruction
system.cpu0.commit.op_class_0::FloatCvt             0      0.00%     87.72% # Class of committed instruction
system.cpu0.commit.op_class_0::FloatMult            0      0.00%     87.72% # Class of committed instruction
system.cpu0.commit.op_class_0::FloatMultAcc            0      0.00%     87.72% # Class of committed instruction
system.cpu0.commit.op_class_0::FloatDiv             0      0.00%     87.72% # Class of committed instruction
system.cpu0.commit.op_class_0::FloatMisc            0      0.00%     87.72% # Class of committed instruction
system.cpu0.commit.op_class_0::FloatSqrt            0      0.00%     87.72% # Class of committed instruction
system.cpu0.commit.op_class_0::SimdAdd              0      0.00%     87.72% # Class of committed instruction
system.cpu0.commit.op_class_0::SimdAddAcc            0      0.00%     87.72% # Class of committed instruction
system.cpu0.commit.op_class_0::SimdAlu              0      0.00%     87.72% # Class of committed instruction
system.cpu0.commit.op_class_0::SimdCmp              0      0.00%     87.72% # Class of committed instruction
system.cpu0.commit.op_class_0::SimdCvt              0      0.00%     87.72% # Class of committed instruction
system.cpu0.commit.op_class_0::SimdMisc             0      0.00%     87.72% # Class of committed instruction
system.cpu0.commit.op_class_0::SimdMult             0      0.00%     87.72% # Class of committed instruction
system.cpu0.commit.op_class_0::SimdMultAcc            0      0.00%     87.72% # Class of committed instruction
system.cpu0.commit.op_class_0::SimdShift            0      0.00%     87.72% # Class of committed instruction
system.cpu0.commit.op_class_0::SimdShiftAcc            0      0.00%     87.72% # Class of committed instruction
system.cpu0.commit.op_class_0::SimdSqrt             0      0.00%     87.72% # Class of committed instruction
system.cpu0.commit.op_class_0::SimdFloatAdd            0      0.00%     87.72% # Class of committed instruction
system.cpu0.commit.op_class_0::SimdFloatAlu            0      0.00%     87.72% # Class of committed instruction
system.cpu0.commit.op_class_0::SimdFloatCmp            0      0.00%     87.72% # Class of committed instruction
system.cpu0.commit.op_class_0::SimdFloatCvt            0      0.00%     87.72% # Class of committed instruction
system.cpu0.commit.op_class_0::SimdFloatDiv            0      0.00%     87.72% # Class of committed instruction
system.cpu0.commit.op_class_0::SimdFloatMisc            0      0.00%     87.72% # Class of committed instruction
system.cpu0.commit.op_class_0::SimdFloatMult            0      0.00%     87.72% # Class of committed instruction
system.cpu0.commit.op_class_0::SimdFloatMultAcc            0      0.00%     87.72% # Class of committed instruction
system.cpu0.commit.op_class_0::SimdFloatSqrt            0      0.00%     87.72% # Class of committed instruction
system.cpu0.commit.op_class_0::MemRead        4345129     11.34%     99.06% # Class of committed instruction
system.cpu0.commit.op_class_0::MemWrite        178044      0.46%     99.53% # Class of committed instruction
system.cpu0.commit.op_class_0::FloatMemRead           92      0.00%     99.53% # Class of committed instruction
system.cpu0.commit.op_class_0::FloatMemWrite       181016      0.47%    100.00% # Class of committed instruction
system.cpu0.commit.op_class_0::IprAccess            0      0.00%    100.00% # Class of committed instruction
system.cpu0.commit.op_class_0::InstPrefetch            0      0.00%    100.00% # Class of committed instruction
system.cpu0.commit.op_class_0::total         38317279                       # Class of committed instruction
system.cpu0.commit.bw_lim_events               157625                       # number cycles where commit BW limit reached
system.cpu0.rob.rob_reads                    68847128                       # The number of ROB reads
system.cpu0.rob.rob_writes                   77056097                       # The number of ROB writes
system.cpu0.timesIdled                            199                       # Number of times that the entire CPU went into an idle state and unscheduled itself
system.cpu0.idleCycles                          16814                       # Total number of cycles that the CPU has spent unscheduled due to idling
system.cpu0.committedInsts                   21530902                       # Number of Instructions Simulated
system.cpu0.committedOps                     38317279                       # Number of Ops (including micro ops) Simulated
system.cpu0.cpi                              1.418180                       # CPI: Cycles Per Instruction
system.cpu0.cpi_total                        1.418180                       # CPI: Total CPI of All Threads
system.cpu0.ipc                              0.705129                       # IPC: Instructions Per Cycle
system.cpu0.ipc_total                        0.705129                       # IPC: Total IPC of All Threads
system.cpu0.int_regfile_reads                51595395                       # number of integer regfile reads
system.cpu0.int_regfile_writes               33814651                       # number of integer regfile writes
system.cpu0.fp_regfile_reads                   183442                       # number of floating regfile reads
system.cpu0.fp_regfile_writes                    1173                       # number of floating regfile writes
system.cpu0.cc_regfile_reads                 21239480                       # number of cc regfile reads
system.cpu0.cc_regfile_writes                29362233                       # number of cc regfile writes
system.cpu0.misc_regfile_reads               13207244                       # number of misc regfile reads
system.cpu0.dcache.tags.pwrStateResidencyTicks::UNDEFINED  15267344125                       # Cumulative time (in ticks) in various power states
system.cpu0.dcache.tags.replacements           296418                       # number of replacements
system.cpu0.dcache.tags.tagsinuse                 512                       # Cycle average of tags in use
system.cpu0.dcache.tags.total_refs            1525272                       # Total number of references to valid blocks.
system.cpu0.dcache.tags.sampled_refs           296418                       # Sample count of references to valid blocks.
system.cpu0.dcache.tags.avg_refs             5.145679                       # Average number of references to valid blocks.
system.cpu0.dcache.tags.warmup_cycle                0                       # Cycle when the warmup percentage was hit.
system.cpu0.dcache.tags.occ_blocks::cpu0.data          512                       # Average occupied blocks per requestor
system.cpu0.dcache.tags.occ_percent::cpu0.data            1                       # Average percentage of cache occupancy
system.cpu0.dcache.tags.occ_percent::total            1                       # Average percentage of cache occupancy
system.cpu0.dcache.tags.occ_task_id_blocks::1024          512                       # Occupied blocks per task id
system.cpu0.dcache.tags.age_task_id_blocks_1024::0          471                       # Occupied blocks per task id
system.cpu0.dcache.tags.age_task_id_blocks_1024::1           39                       # Occupied blocks per task id
system.cpu0.dcache.tags.age_task_id_blocks_1024::2            2                       # Occupied blocks per task id
system.cpu0.dcache.tags.occ_task_id_percent::1024            1                       # Percentage of cache occupancy per task id
system.cpu0.dcache.tags.tag_accesses         19183914                       # Number of tag accesses
system.cpu0.dcache.tags.data_accesses        19183914                       # Number of data accesses
system.cpu0.dcache.pwrStateResidencyTicks::UNDEFINED  15267344125                       # Cumulative time (in ticks) in various power states
system.cpu0.dcache.ReadReq_hits::cpu0.data      1227779                       # number of ReadReq hits
system.cpu0.dcache.ReadReq_hits::total        1227779                       # number of ReadReq hits
system.cpu0.dcache.WriteReq_hits::cpu0.data       314570                       # number of WriteReq hits
system.cpu0.dcache.WriteReq_hits::total        314570                       # number of WriteReq hits
system.cpu0.dcache.demand_hits::cpu0.data      1542349                       # number of demand (read+write) hits
system.cpu0.dcache.demand_hits::total         1542349                       # number of demand (read+write) hits
system.cpu0.dcache.overall_hits::cpu0.data      1542349                       # number of overall hits
system.cpu0.dcache.overall_hits::total        1542349                       # number of overall hits
system.cpu0.dcache.ReadReq_misses::cpu0.data      3135035                       # number of ReadReq misses
system.cpu0.dcache.ReadReq_misses::total      3135035                       # number of ReadReq misses
system.cpu0.dcache.WriteReq_misses::cpu0.data        44490                       # number of WriteReq misses
system.cpu0.dcache.WriteReq_misses::total        44490                       # number of WriteReq misses
system.cpu0.dcache.demand_misses::cpu0.data      3179525                       # number of demand (read+write) misses
system.cpu0.dcache.demand_misses::total       3179525                       # number of demand (read+write) misses
system.cpu0.dcache.overall_misses::cpu0.data      3179525                       # number of overall misses
system.cpu0.dcache.overall_misses::total      3179525                       # number of overall misses
system.cpu0.dcache.ReadReq_miss_latency::cpu0.data 213753342500                       # number of ReadReq miss cycles
system.cpu0.dcache.ReadReq_miss_latency::total 213753342500                       # number of ReadReq miss cycles
system.cpu0.dcache.WriteReq_miss_latency::cpu0.data   2230239500                       # number of WriteReq miss cycles
system.cpu0.dcache.WriteReq_miss_latency::total   2230239500                       # number of WriteReq miss cycles
system.cpu0.dcache.demand_miss_latency::cpu0.data 215983582000                       # number of demand (read+write) miss cycles
system.cpu0.dcache.demand_miss_latency::total 215983582000                       # number of demand (read+write) miss cycles
system.cpu0.dcache.overall_miss_latency::cpu0.data 215983582000                       # number of overall miss cycles
system.cpu0.dcache.overall_miss_latency::total 215983582000                       # number of overall miss cycles
system.cpu0.dcache.ReadReq_accesses::cpu0.data      4362814                       # number of ReadReq accesses(hits+misses)
system.cpu0.dcache.ReadReq_accesses::total      4362814                       # number of ReadReq accesses(hits+misses)
system.cpu0.dcache.WriteReq_accesses::cpu0.data       359060                       # number of WriteReq accesses(hits+misses)
system.cpu0.dcache.WriteReq_accesses::total       359060                       # number of WriteReq accesses(hits+misses)
system.cpu0.dcache.demand_accesses::cpu0.data      4721874                       # number of demand (read+write) accesses
system.cpu0.dcache.demand_accesses::total      4721874                       # number of demand (read+write) accesses
system.cpu0.dcache.overall_accesses::cpu0.data      4721874                       # number of overall (read+write) accesses
system.cpu0.dcache.overall_accesses::total      4721874                       # number of overall (read+write) accesses
system.cpu0.dcache.ReadReq_miss_rate::cpu0.data     0.718581                       # miss rate for ReadReq accesses
system.cpu0.dcache.ReadReq_miss_rate::total     0.718581                       # miss rate for ReadReq accesses
system.cpu0.dcache.WriteReq_miss_rate::cpu0.data     0.123907                       # miss rate for WriteReq accesses
system.cpu0.dcache.WriteReq_miss_rate::total     0.123907                       # miss rate for WriteReq accesses
system.cpu0.dcache.demand_miss_rate::cpu0.data     0.673361                       # miss rate for demand accesses
system.cpu0.dcache.demand_miss_rate::total     0.673361                       # miss rate for demand accesses
system.cpu0.dcache.overall_miss_rate::cpu0.data     0.673361                       # miss rate for overall accesses
system.cpu0.dcache.overall_miss_rate::total     0.673361                       # miss rate for overall accesses
system.cpu0.dcache.ReadReq_avg_miss_latency::cpu0.data 68182.123166                       # average ReadReq miss latency
system.cpu0.dcache.ReadReq_avg_miss_latency::total 68182.123166                       # average ReadReq miss latency
system.cpu0.dcache.WriteReq_avg_miss_latency::cpu0.data 50129.006518                       # average WriteReq miss latency
system.cpu0.dcache.WriteReq_avg_miss_latency::total 50129.006518                       # average WriteReq miss latency
system.cpu0.dcache.demand_avg_miss_latency::cpu0.data 67929.512113                       # average overall miss latency
system.cpu0.dcache.demand_avg_miss_latency::total 67929.512113                       # average overall miss latency
[...]
system.l2.overall_miss_rate::cpu0.inst       0.463115                       # miss rate for overall accesses
system.l2.overall_miss_rate::cpu0.data       0.924091                       # miss rate for overall accesses
system.l2.overall_miss_rate::total           0.923333                       # miss rate for overall accesses
system.l2.ReadExReq_avg_miss_latency::cpu0.data 79432.476421                       # average ReadExReq miss latency
system.l2.ReadExReq_avg_miss_latency::total 79432.476421                       # average ReadExReq miss latency
system.l2.ReadCleanReq_avg_miss_latency::cpu0.inst 91924.778761                       # average ReadCleanReq miss latency
system.l2.ReadCleanReq_avg_miss_latency::total 91924.778761                       # average ReadCleanReq miss latency
system.l2.ReadSharedReq_avg_miss_latency::cpu0.data 78838.650248                       # average ReadSharedReq miss latency
system.l2.ReadSharedReq_avg_miss_latency::total 78838.650248                       # average ReadSharedReq miss latency
system.l2.demand_avg_miss_latency::cpu0.inst 91924.778761                       # average overall miss latency
system.l2.demand_avg_miss_latency::cpu0.data 78890.597220                       # average overall miss latency
system.l2.demand_avg_miss_latency::total 78901.342355                       # average overall miss latency
system.l2.overall_avg_miss_latency::cpu0.inst 91924.778761                       # average overall miss latency
system.l2.overall_avg_miss_latency::cpu0.data 78890.597220                       # average overall miss latency
system.l2.overall_avg_miss_latency::total 78901.342355                       # average overall miss latency
system.l2.blocked_cycles::no_mshrs                  0                       # number of cycles access was blocked
system.l2.blocked_cycles::no_targets                0                       # number of cycles access was blocked
system.l2.blocked::no_mshrs                         0                       # number of cycles access was blocked
system.l2.blocked::no_targets                       0                       # number of cycles access was blocked
system.l2.avg_blocked_cycles::no_mshrs            nan                       # average number of cycles each access was blocked
system.l2.avg_blocked_cycles::no_targets          nan                       # average number of cycles each access was blocked
system.l2.writebacks::writebacks                13738                       # number of writebacks
system.l2.writebacks::total                     13738                       # number of writebacks
system.l2.ReadExReq_mshr_misses::cpu0.data        23962                       # number of ReadExReq MSHR misses
system.l2.ReadExReq_mshr_misses::total          23962                       # number of ReadExReq MSHR misses
system.l2.ReadCleanReq_mshr_misses::cpu0.inst          226                       # number of ReadCleanReq MSHR misses
system.l2.ReadCleanReq_mshr_misses::total          226                       # number of ReadCleanReq MSHR misses
system.l2.ReadSharedReq_mshr_misses::cpu0.data       249957                       # number of ReadSharedReq MSHR misses
system.l2.ReadSharedReq_mshr_misses::total       249957                       # number of ReadSharedReq MSHR misses
system.l2.demand_mshr_misses::cpu0.inst           226                       # number of demand (read+write) MSHR misses
system.l2.demand_mshr_misses::cpu0.data        273919                       # number of demand (read+write) MSHR misses
system.l2.demand_mshr_misses::total            274145                       # number of demand (read+write) MSHR misses
system.l2.overall_mshr_misses::cpu0.inst          226                       # number of overall MSHR misses
system.l2.overall_mshr_misses::cpu0.data       273919                       # number of overall MSHR misses
system.l2.overall_mshr_misses::total           274145                       # number of overall MSHR misses
system.l2.ReadExReq_mshr_miss_latency::cpu0.data   1663741000                       # number of ReadExReq MSHR miss cycles
system.l2.ReadExReq_mshr_miss_latency::total   1663741000                       # number of ReadExReq MSHR miss cycles
system.l2.ReadCleanReq_mshr_miss_latency::cpu0.inst     18515000                       # number of ReadCleanReq MSHR miss cycles
system.l2.ReadCleanReq_mshr_miss_latency::total     18515000                       # number of ReadCleanReq MSHR miss cycles
system.l2.ReadSharedReq_mshr_miss_latency::cpu0.data  17206722500                       # number of ReadSharedReq MSHR miss cycles
system.l2.ReadSharedReq_mshr_miss_latency::total  17206722500                       # number of ReadSharedReq MSHR miss cycles
system.l2.demand_mshr_miss_latency::cpu0.inst     18515000                       # number of demand (read+write) MSHR miss cycles
system.l2.demand_mshr_miss_latency::cpu0.data  18870463500                       # number of demand (read+write) MSHR miss cycles
system.l2.demand_mshr_miss_latency::total  18888978500                       # number of demand (read+write) MSHR miss cycles
system.l2.overall_mshr_miss_latency::cpu0.inst     18515000                       # number of overall MSHR miss cycles
system.l2.overall_mshr_miss_latency::cpu0.data  18870463500                       # number of overall MSHR miss cycles
system.l2.overall_mshr_miss_latency::total  18888978500                       # number of overall MSHR miss cycles
system.l2.ReadExReq_mshr_miss_rate::cpu0.data     0.538653                       # mshr miss rate for ReadExReq accesses
system.l2.ReadExReq_mshr_miss_rate::total     0.538653                       # mshr miss rate for ReadExReq accesses
system.l2.ReadCleanReq_mshr_miss_rate::cpu0.inst     0.463115                       # mshr miss rate for ReadCleanReq accesses
system.l2.ReadCleanReq_mshr_miss_rate::total     0.463115                       # mshr miss rate for ReadCleanReq accesses
system.l2.ReadSharedReq_mshr_miss_rate::cpu0.data     0.992149                       # mshr miss rate for ReadSharedReq accesses
system.l2.ReadSharedReq_mshr_miss_rate::total     0.992149                       # mshr miss rate for ReadSharedReq accesses
system.l2.demand_mshr_miss_rate::cpu0.inst     0.463115                       # mshr miss rate for demand accesses
system.l2.demand_mshr_miss_rate::cpu0.data     0.924091                       # mshr miss rate for demand accesses
system.l2.demand_mshr_miss_rate::total       0.923333                       # mshr miss rate for demand accesses
system.l2.overall_mshr_miss_rate::cpu0.inst     0.463115                       # mshr miss rate for overall accesses
system.l2.overall_mshr_miss_rate::cpu0.data     0.924091                       # mshr miss rate for overall accesses
system.l2.overall_mshr_miss_rate::total      0.923333                       # mshr miss rate for overall accesses
system.l2.ReadExReq_avg_mshr_miss_latency::cpu0.data 69432.476421                       # average ReadExReq mshr miss latency
system.l2.ReadExReq_avg_mshr_miss_latency::total 69432.476421                       # average ReadExReq mshr miss latency
system.l2.ReadCleanReq_avg_mshr_miss_latency::cpu0.inst 81924.778761                       # average ReadCleanReq mshr miss latency
system.l2.ReadCleanReq_avg_mshr_miss_latency::total 81924.778761                       # average ReadCleanReq mshr miss latency
system.l2.ReadSharedReq_avg_mshr_miss_latency::cpu0.data 68838.730262                       # average ReadSharedReq mshr miss latency
system.l2.ReadSharedReq_avg_mshr_miss_latency::total 68838.730262                       # average ReadSharedReq mshr miss latency
system.l2.demand_avg_mshr_miss_latency::cpu0.inst 81924.778761                       # average overall mshr miss latency
system.l2.demand_avg_mshr_miss_latency::cpu0.data 68890.670235                       # average overall mshr miss latency
system.l2.demand_avg_mshr_miss_latency::total 68901.415309                       # average overall mshr miss latency
system.l2.overall_avg_mshr_miss_latency::cpu0.inst 81924.778761                       # average overall mshr miss latency
system.l2.overall_avg_mshr_miss_latency::cpu0.data 68890.670235                       # average overall mshr miss latency
system.l2.overall_avg_mshr_miss_latency::total 68901.415309                       # average overall mshr miss latency
system.membus.snoop_filter.tot_requests        548569                       # Total number of requests made to the snoop filter.
system.membus.snoop_filter.hit_single_requests       274427                       # Number of requests hitting in the snoop filter with a single holder of the requested data.
system.membus.snoop_filter.hit_multi_requests            0                       # Number of requests hitting in the snoop filter with multiple (>1) holders of the requested data.
system.membus.snoop_filter.tot_snoops               0                       # Total number of snoops made to the snoop filter.
system.membus.snoop_filter.hit_single_snoops            0                       # Number of snoops hitting in the snoop filter with a single holder of the requested data.
system.membus.snoop_filter.hit_multi_snoops            0                       # Number of snoops hitting in the snoop filter with multiple (>1) holders of the requested data.
system.membus.pwrStateResidencyTicks::UNDEFINED  15267344125                       # Cumulative time (in ticks) in various power states
system.membus.trans_dist::ReadResp             250181                       # Transaction distribution
system.membus.trans_dist::WritebackDirty        13738                       # Transaction distribution
system.membus.trans_dist::CleanEvict           260686                       # Transaction distribution
system.membus.trans_dist::ReadExReq             23962                       # Transaction distribution
system.membus.trans_dist::ReadExResp            23962                       # Transaction distribution
system.membus.trans_dist::ReadSharedReq        250183                       # Transaction distribution
system.membus.pkt_count_system.l2.mem_side::system.mem_ctrls.port       822712                       # Packet count per connected master and slave (bytes)
system.membus.pkt_count_system.l2.mem_side::total       822712                       # Packet count per connected master and slave (bytes)
system.membus.pkt_count::total                 822712                       # Packet count per connected master and slave (bytes)
system.membus.pkt_size_system.l2.mem_side::system.mem_ctrls.port     18424384                       # Cumulative packet size per connected master and slave (bytes)
system.membus.pkt_size_system.l2.mem_side::total     18424384                       # Cumulative packet size per connected master and slave (bytes)
system.membus.pkt_size::total                18424384                       # Cumulative packet size per connected master and slave (bytes)
system.membus.snoops                                0                       # Total snoops (count)
system.membus.snoopTraffic                          0                       # Total snoop traffic (bytes)
system.membus.snoop_fanout::samples            274145                       # Request fanout histogram
system.membus.snoop_fanout::mean                    0                       # Request fanout histogram
system.membus.snoop_fanout::stdev                   0                       # Request fanout histogram
system.membus.snoop_fanout::underflows              0      0.00%      0.00% # Request fanout histogram
system.membus.snoop_fanout::0                  274145    100.00%    100.00% # Request fanout histogram
system.membus.snoop_fanout::1                       0      0.00%    100.00% # Request fanout histogram
system.membus.snoop_fanout::overflows               0      0.00%    100.00% # Request fanout histogram
system.membus.snoop_fanout::min_value               0                       # Request fanout histogram
system.membus.snoop_fanout::max_value               0                       # Request fanout histogram
system.membus.snoop_fanout::total              274145                       # Request fanout histogram
system.membus.reqLayer12.occupancy          674799500                       # Layer occupancy (ticks)
system.membus.reqLayer12.utilization              4.4                       # Layer utilization (%)
system.membus.respLayer1.occupancy         1440338250                       # Layer occupancy (ticks)
system.membus.respLayer1.utilization              9.4                       # Layer utilization (%)
system.tol2bus.snoop_filter.tot_requests       593820                       # Total number of requests made to the snoop filter.
system.tol2bus.snoop_filter.hit_single_requests       296906                       # Number of requests hitting in the snoop filter with a single holder of the requested data.
system.tol2bus.snoop_filter.hit_multi_requests           14                       # Number of requests hitting in the snoop filter with multiple (>1) holders of the requested data.
system.tol2bus.snoop_filter.tot_snoops             17                       # Total number of snoops made to the snoop filter.
system.tol2bus.snoop_filter.hit_single_snoops           17                       # Number of snoops hitting in the snoop filter with a single holder of the requested data.
system.tol2bus.snoop_filter.hit_multi_snoops            0                       # Number of snoops hitting in the snoop filter with multiple (>1) holders of the requested data.
system.tol2bus.pwrStateResidencyTicks::UNDEFINED  15267344125                       # Cumulative time (in ticks) in various power states
system.tol2bus.trans_dist::ReadResp            252424                       # Transaction distribution
system.tol2bus.trans_dist::WritebackDirty        59721                       # Transaction distribution
system.tol2bus.trans_dist::WritebackClean          488                       # Transaction distribution
system.tol2bus.trans_dist::CleanEvict          511137                       # Transaction distribution
system.tol2bus.trans_dist::UpgradeReq               3                       # Transaction distribution
system.tol2bus.trans_dist::UpgradeResp              3                       # Transaction distribution
system.tol2bus.trans_dist::ReadExReq            44485                       # Transaction distribution
system.tol2bus.trans_dist::ReadExResp           44485                       # Transaction distribution
system.tol2bus.trans_dist::ReadCleanReq           491                       # Transaction distribution
system.tol2bus.trans_dist::ReadSharedReq       251935                       # Transaction distribution
system.tol2bus.pkt_count_system.cpu0.icache.mem_side::system.l2.cpu_side         1467                       # Packet count per connected master and slave (bytes)
system.tol2bus.pkt_count_system.cpu0.dcache.mem_side::system.l2.cpu_side       889262                       # Packet count per connected master and slave (bytes)
system.tol2bus.pkt_count::total                890729                       # Packet count per connected master and slave (bytes)
system.tol2bus.pkt_size_system.cpu0.icache.mem_side::system.l2.cpu_side        62464                       # Cumulative packet size per connected master and slave (bytes)
system.tol2bus.pkt_size_system.cpu0.dcache.mem_side::system.l2.cpu_side     21913664                       # Cumulative packet size per connected master and slave (bytes)
system.tol2bus.pkt_size::total               21976128                       # Cumulative packet size per connected master and slave (bytes)
system.tol2bus.snoops                          274443                       # Total snoops (count)
system.tol2bus.snoopTraffic                    879424                       # Total snoop traffic (bytes)
system.tol2bus.snoop_fanout::samples           571354                       # Request fanout histogram
system.tol2bus.snoop_fanout::mean            0.000054                       # Request fanout histogram
system.tol2bus.snoop_fanout::stdev           0.007366                       # Request fanout histogram
system.tol2bus.snoop_fanout::underflows             0      0.00%      0.00% # Request fanout histogram
system.tol2bus.snoop_fanout::0                 571323     99.99%     99.99% # Request fanout histogram
system.tol2bus.snoop_fanout::1                     31      0.01%    100.00% # Request fanout histogram
system.tol2bus.snoop_fanout::2                      0      0.00%    100.00% # Request fanout histogram
system.tol2bus.snoop_fanout::3                      0      0.00%    100.00% # Request fanout histogram
system.tol2bus.snoop_fanout::4                      0      0.00%    100.00% # Request fanout histogram
system.tol2bus.snoop_fanout::5                      0      0.00%    100.00% # Request fanout histogram
system.tol2bus.snoop_fanout::6                      0      0.00%    100.00% # Request fanout histogram
system.tol2bus.snoop_fanout::7                      0      0.00%    100.00% # Request fanout histogram
system.tol2bus.snoop_fanout::8                      0      0.00%    100.00% # Request fanout histogram
system.tol2bus.snoop_fanout::9                      0      0.00%    100.00% # Request fanout histogram
system.tol2bus.snoop_fanout::10                     0      0.00%    100.00% # Request fanout histogram
system.tol2bus.snoop_fanout::11                     0      0.00%    100.00% # Request fanout histogram
system.tol2bus.snoop_fanout::12                     0      0.00%    100.00% # Request fanout histogram
system.tol2bus.snoop_fanout::13                     0      0.00%    100.00% # Request fanout histogram
system.tol2bus.snoop_fanout::14                     0      0.00%    100.00% # Request fanout histogram
system.tol2bus.snoop_fanout::15                     0      0.00%    100.00% # Request fanout histogram
system.tol2bus.snoop_fanout::16                     0      0.00%    100.00% # Request fanout histogram
system.tol2bus.snoop_fanout::17                     0      0.00%    100.00% # Request fanout histogram
system.tol2bus.snoop_fanout::18                     0      0.00%    100.00% # Request fanout histogram
system.tol2bus.snoop_fanout::19                     0      0.00%    100.00% # Request fanout histogram
system.tol2bus.snoop_fanout::20                     0      0.00%    100.00% # Request fanout histogram
system.tol2bus.snoop_fanout::21                     0      0.00%    100.00% # Request fanout histogram
system.tol2bus.snoop_fanout::22                     0      0.00%    100.00% # Request fanout histogram
system.tol2bus.snoop_fanout::23                     0      0.00%    100.00% # Request fanout histogram
system.tol2bus.snoop_fanout::24                     0      0.00%    100.00% # Request fanout histogram
system.tol2bus.snoop_fanout::overflows              0      0.00%    100.00% # Request fanout histogram
system.tol2bus.snoop_fanout::min_value              0                       # Request fanout histogram
system.tol2bus.snoop_fanout::max_value              1                       # Request fanout histogram
system.tol2bus.snoop_fanout::total             571354                       # Request fanout histogram
system.tol2bus.reqLayer0.occupancy          343381000                       # Layer occupancy (ticks)
system.tol2bus.reqLayer0.utilization              2.2                       # Layer utilization (%)
system.tol2bus.respLayer0.occupancy            736500                       # Layer occupancy (ticks)
system.tol2bus.respLayer0.utilization             0.0                       # Layer utilization (%)
system.tol2bus.respLayer1.occupancy         444629498                       # Layer occupancy (ticks)
system.tol2bus.respLayer1.utilization             2.9                       # Layer utilization (%)

---------- End Simulation Statistics   ----------
