
---------- Begin Simulation Statistics ----------
sim_seconds                                  0.015267                       # Number of seconds simulated
sim_ticks                                 15267344125                       # Number of ticks simulated
final_tick                               2549646468875                       # Number of ticks from beginning of simulation (restored from checkpoints and never reset)
sim_freq                                 1000000000000                       # Frequency of simulated ticks
host_inst_rate                               31885563                       # Simulator instruction rate (inst/s)
host_op_rate                                 58958637                       # Simulator op (including micro ops) rate (op/s)
host_tick_rate                               89676548                       # Simulator tick rate (ticks/s)
host_mem_usage                                3428856                       # Number of bytes of host memory used
host_seconds                                   170.25                       # Real time elapsed on the host
sim_insts                                  5428485052                       # Number of instructions simulated
sim_ops                                   10037649393                       # Number of ops (including micro ops) simulated
system.voltage_domain.voltage                       1                       # Voltage in Volts
system.clk_domain.clock                          1000                       # Clock period in ticks
system.mem_ctrls.pwrStateResidencyTicks::UNDEFINED  15267344125                       # Cumulative time (in ticks) in various power states
system.mem_ctrls.bytes_read::cpu0.inst          32256                       # Number of bytes read from this memory
system.mem_ctrls.bytes_read::cpu0.data        7763648                       # Number of bytes read from this memory
system.mem_ctrls.bytes_read::total            7795904                       # Number of bytes read from this memory
system.mem_ctrls.bytes_inst_read::cpu0.inst        32256                       # Number of instructions bytes read from this memory
system.mem_ctrls.bytes_inst_read::total         32256                       # Number of instructions bytes read from this memory
system.mem_ctrls.bytes_written::writebacks       952128                       # Number of bytes written to this memory
system.mem_ctrls.bytes_written::total          952128                       # Number of bytes written to this memory
system.mem_ctrls.num_reads::cpu0.inst             504                       # Number of read requests responded to by this memory
system.mem_ctrls.num_reads::cpu0.data          121307                       # Number of read requests responded to by this memory
system.mem_ctrls.num_reads::total              121811                       # Number of read requests responded to by this memory
system.mem_ctrls.num_writes::writebacks         14877                       # Number of write requests responded to by this memory
system.mem_ctrls.num_writes::total              14877                       # Number of write requests responded to by this memory
system.mem_ctrls.bw_read::cpu0.inst           2112745                       # Total read bandwidth from this memory (bytes/s)
system.mem_ctrls.bw_read::cpu0.data         508513330                       # Total read bandwidth from this memory (bytes/s)
system.mem_ctrls.bw_read::total             510626075                       # Total read bandwidth from this memory (bytes/s)
system.mem_ctrls.bw_inst_read::cpu0.inst      2112745                       # Instruction read bandwidth from this memory (bytes/s)
system.mem_ctrls.bw_inst_read::total          2112745                       # Instruction read bandwidth from this memory (bytes/s)
system.mem_ctrls.bw_write::writebacks        62363695                       # Write bandwidth from this memory (bytes/s)
system.mem_ctrls.bw_write::total             62363695                       # Write bandwidth from this memory (bytes/s)
system.mem_ctrls.bw_total::writebacks        62363695                       # Total bandwidth to/from this memory (bytes/s)
system.mem_ctrls.bw_total::cpu0.inst          2112745                       # Total bandwidth to/from this memory (bytes/s)
system.mem_ctrls.bw_total::cpu0.data        508513330                       # Total bandwidth to/from this memory (bytes/s)
system.mem_ctrls.bw_total::total            572989770                       # Total bandwidth to/from this memory (bytes/s)
system.mem_ctrls.readReqs                      121811                       # Number of read requests accepted
system.mem_ctrls.writeReqs                      14877                       # Number of write requests accepted
system.mem_ctrls.readBursts                    121811                       # Number of DRAM read bursts, including those serviced by the write queue
system.mem_ctrls.writeBursts                    14877                       # Number of DRAM write bursts, including those merged in the write queue
system.mem_ctrls.bytesReadDRAM                7795328                       # Total number of bytes read from DRAM
system.mem_ctrls.bytesReadWrQ                     576                       # Total number of bytes read from write queue
system.mem_ctrls.bytesWritten                  952256                       # Total number of bytes written to DRAM
system.mem_ctrls.bytesReadSys                 7795904                       # Total read bytes from the system interface side
system.mem_ctrls.bytesWrittenSys               952128                       # Total written bytes from the system interface side
system.mem_ctrls.servicedByWrQ                      9                       # Number of DRAM read bursts serviced by the write queue
system.mem_ctrls.mergedWrBursts                     0                       # Number of DRAM write bursts merged with an existing one
system.mem_ctrls.neitherReadNorWriteReqs            0                       # Number of requests that are neither read nor write
system.mem_ctrls.perBankRdBursts::0              7537                       # Per bank write bursts
system.mem_ctrls.perBankRdBursts::1              7785                       # Per bank write bursts
system.mem_ctrls.perBankRdBursts::2              7581                       # Per bank write bursts
system.mem_ctrls.perBankRdBursts::3              7562                       # Per bank write bursts
system.mem_ctrls.perBankRdBursts::4              7693                       # Per bank write bursts
system.mem_ctrls.perBankRdBursts::5              7656                       # Per bank write bursts
system.mem_ctrls.perBankRdBursts::6              7821                       # Per bank write bursts
system.mem_ctrls.perBankRdBursts::7              7912                       # Per bank write bursts
system.mem_ctrls.perBankRdBursts::8              7954                       # Per bank write bursts
system.mem_ctrls.perBankRdBursts::9              7688                       # Per bank write bursts
system.mem_ctrls.perBankRdBursts::10             7509                       # Per bank write bursts
system.mem_ctrls.perBankRdBursts::11             7432                       # Per bank write bursts
system.mem_ctrls.perBankRdBursts::12             7399                       # Per bank write bursts
system.mem_ctrls.perBankRdBursts::13             7369                       # Per bank write bursts
system.mem_ctrls.perBankRdBursts::14             7377                       # Per bank write bursts
system.mem_ctrls.perBankRdBursts::15             7527                       # Per bank write bursts
system.mem_ctrls.perBankWrBursts::0              1240                       # Per bank write bursts
system.mem_ctrls.perBankWrBursts::1              1130                       # Per bank write bursts
system.mem_ctrls.perBankWrBursts::2              1040                       # Per bank write bursts
system.mem_ctrls.perBankWrBursts::3               810                       # Per bank write bursts
system.mem_ctrls.perBankWrBursts::4               886                       # Per bank write bursts
system.mem_ctrls.perBankWrBursts::5               835                       # Per bank write bursts
system.mem_ctrls.perBankWrBursts::6               955                       # Per bank write bursts
system.mem_ctrls.perBankWrBursts::7               899                       # Per bank write bursts
system.mem_ctrls.perBankWrBursts::8               806                       # Per bank write bursts
system.mem_ctrls.perBankWrBursts::9               799                       # Per bank write bursts
system.mem_ctrls.perBankWrBursts::10              713                       # Per bank write bursts
system.mem_ctrls.perBankWrBursts::11              879                       # Per bank write bursts
system.mem_ctrls.perBankWrBursts::12              820                       # Per bank write bursts
system.mem_ctrls.perBankWrBursts::13              949                       # Per bank write bursts
system.mem_ctrls.perBankWrBursts::14              994                       # Per bank write bursts
system.mem_ctrls.perBankWrBursts::15             1124                       # Per bank write bursts
system.mem_ctrls.numRdRetry                         0                       # Number of times read queue was full causing retry
system.mem_ctrls.numWrRetry                         0                       # Number of times write queue was full causing retry
system.mem_ctrls.totGap                   15266936000                       # Total gap between requests
system.mem_ctrls.readPktSize::0                     0                       # Read request sizes (log2)
system.mem_ctrls.readPktSize::1                     0                       # Read request sizes (log2)
system.mem_ctrls.readPktSize::2                     0                       # Read request sizes (log2)
system.mem_ctrls.readPktSize::3                     0                       # Read request sizes (log2)
system.mem_ctrls.readPktSize::4                     0                       # Read request sizes (log2)
system.mem_ctrls.readPktSize::5                     0                       # Read request sizes (log2)
system.mem_ctrls.readPktSize::6                121811                       # Read request sizes (log2)
system.mem_ctrls.writePktSize::0                    0                       # Write request sizes (log2)
system.mem_ctrls.writePktSize::1                    0                       # Write request sizes (log2)
system.mem_ctrls.writePktSize::2                    0                       # Write request sizes (log2)
system.mem_ctrls.writePktSize::3                    0                       # Write request sizes (log2)
system.mem_ctrls.writePktSize::4                    0                       # Write request sizes (log2)
system.mem_ctrls.writePktSize::5                    0                       # Write request sizes (log2)
system.mem_ctrls.writePktSize::6                14877                       # Write request sizes (log2)
system.mem_ctrls.rdQLenPdf::0                  108186                       # What read queue length does an incoming req see
system.mem_ctrls.rdQLenPdf::1                   13495                       # What read queue length does an incoming req see
system.mem_ctrls.rdQLenPdf::2                     107                       # What read queue length does an incoming req see
system.mem_ctrls.rdQLenPdf::3                      12                       # What read queue length does an incoming req see
system.mem_ctrls.rdQLenPdf::4                       2                       # What read queue length does an incoming req see
system.mem_ctrls.rdQLenPdf::5                       0                       # What read queue length does an incoming req see
system.mem_ctrls.rdQLenPdf::6                       0                       # What read queue length does an incoming req see
system.mem_ctrls.rdQLenPdf::7                       0                       # What read queue length does an incoming req see
system.mem_ctrls.rdQLenPdf::8                       0                       # What read queue length does an incoming req see
system.mem_ctrls.rdQLenPdf::9                       0                       # What read queue length does an incoming req see
system.mem_ctrls.rdQLenPdf::10                      0                       # What read queue length does an incoming req see
system.mem_ctrls.rdQLenPdf::11                      0                       # What read queue length does an incoming req see
system.mem_ctrls.rdQLenPdf::12                      0                       # What read queue length does an incoming req see
system.mem_ctrls.rdQLenPdf::13                      0                       # What read queue length does an incoming req see
system.mem_ctrls.rdQLenPdf::14                      0                       # What read queue length does an incoming req see
system.mem_ctrls.rdQLenPdf::15                      0                       # What read queue length does an incoming req see
system.mem_ctrls.rdQLenPdf::16                      0                       # What read queue length does an incoming req see
system.mem_ctrls.rdQLenPdf::17                      0                       # What read queue length does an incoming req see
system.mem_ctrls.rdQLenPdf::18                      0                       # What read queue length does an incoming req see
system.mem_ctrls.rdQLenPdf::19                      0                       # What read queue length does an incoming req see
system.mem_ctrls.rdQLenPdf::20                      0                       # What read queue length does an incoming req see
system.mem_ctrls.rdQLenPdf::21                      0                       # What read queue length does an incoming req see
system.mem_ctrls.rdQLenPdf::22                      0                       # What read queue length does an incoming req see
system.mem_ctrls.rdQLenPdf::23                      0                       # What read queue length does an incoming req see
system.mem_ctrls.rdQLenPdf::24                      0                       # What read queue length does an incoming req see
system.mem_ctrls.rdQLenPdf::25                      0                       # What read queue length does an incoming req see
system.mem_ctrls.rdQLenPdf::26                      0                       # What read queue length does an incoming req see
system.mem_ctrls.rdQLenPdf::27                      0                       # What read queue length does an incoming req see
system.mem_ctrls.rdQLenPdf::28                      0                       # What read queue length does an incoming req see
system.mem_ctrls.rdQLenPdf::29                      0                       # What read queue length does an incoming req see
system.mem_ctrls.rdQLenPdf::30                      0                       # What read queue length does an incoming req see
system.mem_ctrls.rdQLenPdf::31                      0                       # What read queue length does an incoming req see
system.mem_ctrls.wrQLenPdf::0                       0                       # What write queue length does an incoming req see
system.mem_ctrls.wrQLenPdf::1                       0                       # What write queue length does an incoming req see
system.mem_ctrls.wrQLenPdf::2                       0                       # What write queue length does an incoming req see
system.mem_ctrls.wrQLenPdf::3                       0                       # What write queue length does an incoming req see
system.mem_ctrls.wrQLenPdf::4                       0                       # What write queue length does an incoming req see
system.mem_ctrls.wrQLenPdf::5                       0                       # What write queue length does an incoming req see
system.mem_ctrls.wrQLenPdf::6                       0                       # What write queue length does an incoming req see
system.mem_ctrls.wrQLenPdf::7                       0                       # What write queue length does an incoming req see
system.mem_ctrls.wrQLenPdf::8                       0                       # What write queue length does an incoming req see
system.mem_ctrls.wrQLenPdf::9                       0                       # What write queue length does an incoming req see
system.mem_ctrls.wrQLenPdf::10                      0                       # What write queue length does an incoming req see
system.mem_ctrls.wrQLenPdf::11                      0                       # What write queue length does an incoming req see
system.mem_ctrls.wrQLenPdf::12                      0                       # What write queue length does an incoming req see
system.mem_ctrls.wrQLenPdf::13                      0                       # What write queue length does an incoming req see
system.mem_ctrls.wrQLenPdf::14                      0                       # What write queue length does an incoming req see
system.mem_ctrls.wrQLenPdf::15                    331                       # What write queue length does an incoming req see
system.mem_ctrls.wrQLenPdf::16                    332                       # What write queue length does an incoming req see
system.mem_ctrls.wrQLenPdf::17                    883                       # What write queue length does an incoming req see
system.mem_ctrls.wrQLenPdf::18                    885                       # What write queue length does an incoming req see
system.mem_ctrls.wrQLenPdf::19                    889                       # What write queue length does an incoming req see
system.mem_ctrls.wrQLenPdf::20                    887                       # What write queue length does an incoming req see
system.mem_ctrls.wrQLenPdf::21                    887                       # What write queue length does an incoming req see
system.mem_ctrls.wrQLenPdf::22                    887                       # What write queue length does an incoming req see
system.mem_ctrls.wrQLenPdf::23                    889                       # What write queue length does an incoming req see
system.mem_ctrls.wrQLenPdf::24                    888                       # What write queue length does an incoming req see
system.mem_ctrls.wrQLenPdf::25                    891                       # What write queue length does an incoming req see
system.mem_ctrls.wrQLenPdf::26                    887                       # What write queue length does an incoming req see
system.mem_ctrls.wrQLenPdf::27                    888                       # What write queue length does an incoming req see
system.mem_ctrls.wrQLenPdf::28                    887                       # What write queue length does an incoming req see
system.mem_ctrls.wrQLenPdf::29                    886                       # What write queue length does an incoming req see
system.mem_ctrls.wrQLenPdf::30                    892                       # What write queue length does an incoming req see
system.mem_ctrls.wrQLenPdf::31                    890                       # What write queue length does an incoming req see
system.mem_ctrls.wrQLenPdf::32                    895                       # What write queue length does an incoming req see
system.mem_ctrls.wrQLenPdf::33                      3                       # What write queue length does an incoming req see
system.mem_ctrls.wrQLenPdf::34                      0                       # What write queue length does an incoming req see
system.mem_ctrls.wrQLenPdf::35                      0                       # What write queue length does an incoming req see
system.mem_ctrls.wrQLenPdf::36                      0                       # What write queue length does an incoming req see
system.mem_ctrls.wrQLenPdf::37                      0                       # What write queue length does an incoming req see
system.mem_ctrls.wrQLenPdf::38                      0                       # What write queue length does an incoming req see
system.mem_ctrls.wrQLenPdf::39                      0                       # What write queue length does an incoming req see
system.mem_ctrls.wrQLenPdf::40                      0                       # What write queue length does an incoming req see
system.mem_ctrls.wrQLenPdf::41                      0                       # What write queue length does an incoming req see
system.mem_ctrls.wrQLenPdf::42                      0                       # What write queue length does an incoming req see
system.mem_ctrls.wrQLenPdf::43                      0                       # What write queue length does an incoming req see
system.mem_ctrls.wrQLenPdf::44                      0                       # What write queue length does an incoming req see
system.mem_ctrls.wrQLenPdf::45                      0                       # What write queue length does an incoming req see
system.mem_ctrls.wrQLenPdf::46                      0                       # What write queue length does an incoming req see
system.mem_ctrls.wrQLenPdf::47                      0                       # What write queue length does an incoming req see
system.mem_ctrls.wrQLenPdf::48                      0                       # What write queue length does an incoming req see
system.mem_ctrls.wrQLenPdf::49                      0                       # What write queue length does an incoming req see
system.mem_ctrls.wrQLenPdf::50                      0                       # What write queue length does an incoming req see
system.mem_ctrls.wrQLenPdf::51                      0                       # What write queue length does an incoming req see
system.mem_ctrls.wrQLenPdf::52                      0                       # What write queue length does an incoming req see
system.mem_ctrls.wrQLenPdf::53                      0                       # What write queue length does an incoming req see
system.mem_ctrls.wrQLenPdf::54                      0                       # What write queue length does an incoming req see
system.mem_ctrls.wrQLenPdf::55                      0                       # What write queue length does an incoming req see
system.mem_ctrls.wrQLenPdf::56                      0                       # What write queue length does an incoming req see
system.mem_ctrls.wrQLenPdf::57                      0                       # What write queue length does an incoming req see
system.mem_ctrls.wrQLenPdf::58                      0                       # What write queue length does an incoming req see
system.mem_ctrls.wrQLenPdf::59                      0                       # What write queue length does an incoming req see
system.mem_ctrls.wrQLenPdf::60                      0                       # What write queue length does an incoming req see
system.mem_ctrls.wrQLenPdf::61                      0                       # What write queue length does an incoming req see
system.mem_ctrls.wrQLenPdf::62                      0                       # What write queue length does an incoming req see
system.mem_ctrls.wrQLenPdf::63                      0                       # What write queue length does an incoming req see
system.mem_ctrls.bytesPerActivate::samples        14667                       # Bytes accessed per row activation
system.mem_ctrls.bytesPerActivate::mean    596.425718                       # Bytes accessed per row activation
system.mem_ctrls.bytesPerActivate::gmean   396.039011                       # Bytes accessed per row activation
system.mem_ctrls.bytesPerActivate::stdev   400.848277                       # Bytes accessed per row activation
system.mem_ctrls.bytesPerActivate::0-127         2681     18.28%     18.28% # Bytes accessed per row activation
system.mem_ctrls.bytesPerActivate::128-255         1412      9.63%     27.91% # Bytes accessed per row activation
system.mem_ctrls.bytesPerActivate::256-383         1316      8.97%     36.88% # Bytes accessed per row activation
system.mem_ctrls.bytesPerActivate::384-511         1097      7.48%     44.36% # Bytes accessed per row activation
system.mem_ctrls.bytesPerActivate::512-639          988      6.74%     51.09% # Bytes accessed per row activation
system.mem_ctrls.bytesPerActivate::640-767          594      4.05%     55.14% # Bytes accessed per row activation
system.mem_ctrls.bytesPerActivate::768-895          333      2.27%     57.41% # Bytes accessed per row activation
system.mem_ctrls.bytesPerActivate::896-1023          338      2.30%     59.72% # Bytes accessed per row activation
system.mem_ctrls.bytesPerActivate::1024-1151         5908     40.28%    100.00% # Bytes accessed per row activation
system.mem_ctrls.bytesPerActivate::total        14667                       # Bytes accessed per row activation
system.mem_ctrls.rdPerTurnAround::samples          887                       # Reads before turning the bus around for writes
system.mem_ctrls.rdPerTurnAround::mean     144.258174                       # Reads before turning the bus around for writes
system.mem_ctrls.rdPerTurnAround::gmean     26.455177                       # Reads before turning the bus around for writes
system.mem_ctrls.rdPerTurnAround::stdev   1149.140403                       # Reads before turning the bus around for writes
system.mem_ctrls.rdPerTurnAround::0-1023          869     97.97%     97.97% # Reads before turning the bus around for writes
system.mem_ctrls.rdPerTurnAround::1024-2047            5      0.56%     98.53% # Reads before turning the bus around for writes
system.mem_ctrls.rdPerTurnAround::2048-3071            3      0.34%     98.87% # Reads before turning the bus around for writes
system.mem_ctrls.rdPerTurnAround::3072-4095            3      0.34%     99.21% # Reads before turning the bus around for writes
system.mem_ctrls.rdPerTurnAround::4096-5119            1      0.11%     99.32% # Reads before turning the bus around for writes
system.mem_ctrls.rdPerTurnAround::5120-6143            1      0.11%     99.44% # Reads before turning the bus around for writes
system.mem_ctrls.rdPerTurnAround::7168-8191            1      0.11%     99.55% # Reads before turning the bus around for writes
system.mem_ctrls.rdPerTurnAround::8192-9215            1      0.11%     99.66% # Reads before turning the bus around for writes
system.mem_ctrls.rdPerTurnAround::12288-13311            1      0.11%     99.77% # Reads before turning the bus around for writes
system.mem_ctrls.rdPerTurnAround::13312-14335            1      0.11%     99.89% # Reads before turning the bus around for writes
system.mem_ctrls.rdPerTurnAround::23552-24575            1      0.11%    100.00% # Reads before turning the bus around for writes
system.mem_ctrls.rdPerTurnAround::total           887                       # Reads before turning the bus around for writes
system.mem_ctrls.wrPerTurnAround::samples          887                       # Writes before turning the bus around for reads
system.mem_ctrls.wrPerTurnAround::mean      16.774521                       # Writes before turning the bus around for reads
system.mem_ctrls.wrPerTurnAround::gmean     16.744446                       # Writes before turning the bus around for reads
system.mem_ctrls.wrPerTurnAround::stdev      1.017291                       # Writes before turning the bus around for reads
system.mem_ctrls.wrPerTurnAround::16              555     62.57%     62.57% # Writes before turning the bus around for reads
system.mem_ctrls.wrPerTurnAround::17                1      0.11%     62.68% # Writes before turning the bus around for reads
system.mem_ctrls.wrPerTurnAround::18              309     34.84%     97.52% # Writes before turning the bus around for reads
system.mem_ctrls.wrPerTurnAround::19               20      2.25%     99.77% # Writes before turning the bus around for reads
system.mem_ctrls.wrPerTurnAround::20                2      0.23%    100.00% # Writes before turning the bus around for reads
system.mem_ctrls.wrPerTurnAround::total           887                       # Writes before turning the bus around for reads
system.mem_ctrls.totQLat                   1513777000                       # Total ticks spent queuing
system.mem_ctrls.totMemAccLat              3797564500                       # Total ticks spent from burst creation until serviced by the DRAM
system.mem_ctrls.totBusLat                  609010000                       # Total ticks spent in databus transfers
system.mem_ctrls.avgQLat                     12428.18                       # Average queueing delay per DRAM burst
system.mem_ctrls.avgBusLat                    5000.00                       # Average bus latency per DRAM burst
system.mem_ctrls.avgMemAccLat                31178.18                       # Average memory access latency per DRAM burst
system.mem_ctrls.avgRdBW                       510.59                       # Average DRAM read bandwidth in MiByte/s
system.mem_ctrls.avgWrBW                        62.37                       # Average achieved write bandwidth in MiByte/s
system.mem_ctrls.avgRdBWSys                    510.63                       # Average system read bandwidth in MiByte/s
system.mem_ctrls.avgWrBWSys                     62.36                       # Average system write bandwidth in MiByte/s
system.mem_ctrls.peakBW                      12800.00                       # Theoretical peak bandwidth in MiByte/s
system.mem_ctrls.busUtil                         4.48                       # Data bus utilization in percentage
system.mem_ctrls.busUtilRead                     3.99                       # Data bus utilization in percentage for reads
system.mem_ctrls.busUtilWrite                    0.49                       # Data bus utilization in percentage for writes
system.mem_ctrls.avgRdQLen                       1.12                       # Average read queue length when enqueuing
system.mem_ctrls.avgWrQLen                      25.76                       # Average write queue length when enqueuing
system.mem_ctrls.readRowHits                   108736                       # Number of row buffer hits during reads
system.mem_ctrls.writeRowHits                   13279                       # Number of row buffer hits during writes
system.mem_ctrls.readRowHitRate                 89.27                       # Row buffer hit rate for reads
system.mem_ctrls.writeRowHitRate                89.26                       # Row buffer hit rate for writes
system.mem_ctrls.avgGap                     111691.85                       # Average gap between requests
system.mem_ctrls.pageHitRate                    89.27                       # Row buffer hit rate, read and write combined
system.mem_ctrls_0.actEnergy                 50644020                       # Energy for activate commands per rank (pJ)
system.mem_ctrls_0.preEnergy                 26921730                       # Energy for precharge commands per rank (pJ)
system.mem_ctrls_0.readEnergy               439445580                       # Energy for read commands per rank (pJ)
system.mem_ctrls_0.writeEnergy               40689900                       # Energy for write commands per rank (pJ)
system.mem_ctrls_0.refreshEnergy         960067680.000000                       # Energy for refresh commands per rank (pJ)
system.mem_ctrls_0.actBackEnergy           1028391150                       # Energy for active background per rank (pJ)
system.mem_ctrls_0.preBackEnergy             46688160                       # Energy for precharge background per rank (pJ)
system.mem_ctrls_0.actPowerDownEnergy      3620226750                       # Energy for active power-down per rank (pJ)
system.mem_ctrls_0.prePowerDownEnergy       457885920                       # Energy for precharge power-down per rank (pJ)
system.mem_ctrls_0.selfRefreshEnergy        951864600                       # Energy for self refresh per rank (pJ)
system.mem_ctrls_0.totalEnergy             7623023010                       # Total energy per rank (pJ)
system.mem_ctrls_0.averagePower            499.302495                       # Core power per rank (mW)
system.mem_ctrls_0.totalIdleTime          12889747250                       # Total Idle time Per DRAM Rank
system.mem_ctrls_0.memoryStateTime::IDLE     46568500                       # Time in different power states
system.mem_ctrls_0.memoryStateTime::REF     406678000                       # Time in different power states
system.mem_ctrls_0.memoryStateTime::SREF   3758570500                       # Time in different power states
system.mem_ctrls_0.memoryStateTime::PRE_PDN   1192313250                       # Time in different power states
system.mem_ctrls_0.memoryStateTime::ACT    1923892750                       # Time in different power states
system.mem_ctrls_0.memoryStateTime::ACT_PDN   7939321125                       # Time in different power states
system.mem_ctrls_1.actEnergy                 54071220                       # Energy for activate commands per rank (pJ)
system.mem_ctrls_1.preEnergy                 28739535                       # Energy for precharge commands per rank (pJ)
system.mem_ctrls_1.readEnergy               430220700                       # Energy for read commands per rank (pJ)
system.mem_ctrls_1.writeEnergy               36978480                       # Energy for write commands per rank (pJ)
system.mem_ctrls_1.refreshEnergy         1021531680.000000                       # Energy for refresh commands per rank (pJ)
system.mem_ctrls_1.actBackEnergy           1078833870                       # Energy for active background per rank (pJ)
system.mem_ctrls_1.preBackEnergy             49459200                       # Energy for precharge background per rank (pJ)
system.mem_ctrls_1.actPowerDownEnergy      3865760520                       # Energy for active power-down per rank (pJ)
system.mem_ctrls_1.prePowerDownEnergy       499791360                       # Energy for precharge power-down per rank (pJ)
system.mem_ctrls_1.selfRefreshEnergy        769269180                       # Energy for self refresh per rank (pJ)
system.mem_ctrls_1.totalEnergy             7834870935                       # Total energy per rank (pJ)
system.mem_ctrls_1.averagePower            513.178381                       # Core power per rank (mW)
system.mem_ctrls_1.totalIdleTime          12770440000                       # Total Idle time Per DRAM Rank
system.mem_ctrls_1.memoryStateTime::IDLE     45225250                       # Time in different power states
system.mem_ctrls_1.memoryStateTime::REF     432702000                       # Time in different power states
system.mem_ctrls_1.memoryStateTime::SREF   2993124500                       # Time in different power states
system.mem_ctrls_1.memoryStateTime::PRE_PDN   1301474750                       # Time in different power states
system.mem_ctrls_1.memoryStateTime::ACT    2017095000                       # Time in different power states
system.mem_ctrls_1.memoryStateTime::ACT_PDN   8477722625                       # Time in different power states
system.pwrStateResidencyTicks::UNDEFINED  15267344125                       # Cumulative time (in ticks) in various power states
system.cpu0.branchPred.lookups                5940893                       # Number of BP lookups
system.cpu0.branchPred.condPredicted          5940893                       # Number of conditional branches predicted
system.cpu0.branchPred.condIncorrect           337569                       # Number of conditional branches incorrect
system.cpu0.branchPred.BTBLookups             4293841                       # Number of BTB lookups
system.cpu0.branchPred.BTBHits                      0                       # Number of BTB hits
system.cpu0.branchPred.BTBCorrect                   0                       # Number of correct BTB predictions (this stat may not work properly.
system.cpu0.branchPred.BTBHitPct             0.000000                       # BTB Hit Percentage
system.cpu0.branchPred.usedRAS                 407746                       # Number of times the RAS was used to get a target.
system.cpu0.branchPred.RASInCorrect             57314                       # Number of incorrect RAS predictions.
system.cpu0.branchPred.indirectLookups        4293841                       # Number of indirect predictor lookups.
system.cpu0.branchPred.indirectHits           2356023                       # Number of indirect target hits.
system.cpu0.branchPred.indirectMisses         1937818                       # Number of indirect misses.
system.cpu0.branchPredindirectMispredicted       163428                       # Number of mispredicted indirect branches.
system.cpu_voltage_domain.voltage                   1                       # Voltage in Volts
system.cpu_clk_domain.clock                       500                       # Clock period in ticks
system.cpu0.dtb.walker.pwrStateResidencyTicks::UNDEFINED  15267344125                       # Cumulative time (in ticks) in various power states
system.cpu0.dtb.rdAccesses                    3401453                       # TLB accesses on read requests
system.cpu0.dtb.wrAccesses                    1838336                       # TLB accesses on write requests
system.cpu0.dtb.rdMisses                        87063                       # TLB misses on read requests
system.cpu0.dtb.wrMisses                         8667                       # TLB misses on write requests
system.cpu0.apic_clk_domain.clock                8000                       # Clock period in ticks
system.cpu0.interrupts.pwrStateResidencyTicks::UNDEFINED  15267344125                       # Cumulative time (in ticks) in various power states
system.cpu0.itb.walker.pwrStateResidencyTicks::UNDEFINED  15267344125                       # Cumulative time (in ticks) in various power states
system.cpu0.itb.rdAccesses                          0                       # TLB accesses on read requests
system.cpu0.itb.wrAccesses                    2986013                       # TLB accesses on write requests
system.cpu0.itb.rdMisses                            0                       # TLB misses on read requests
system.cpu0.itb.wrMisses                         2578                       # TLB misses on write requests
system.cpu0.workload.numSyscalls                   25                       # Number of system calls
system.cpu0.pwrStateResidencyTicks::ON    15267344125                       # Cumulative time (in ticks) in various power states
system.cpu0.numCycles                        30534688                       # number of cpu cycles simulated
system.cpu0.numWorkItemsStarted                     0                       # number of work items this cpu started
system.cpu0.numWorkItemsCompleted                   0                       # number of work items this cpu completed
system.cpu0.fetch.icacheStallCycles           3187524                       # Number of cycles fetch is stalled on an Icache miss
system.cpu0.fetch.Insts                      24744586                       # Number of instructions fetch has processed
system.cpu0.fetch.Branches                    5940893                       # Number of branches that fetch encountered
system.cpu0.fetch.predictedBranches           2763769                       # Number of branches that fetch has predicted taken
system.cpu0.fetch.Cycles                     26955441                       # Number of cycles fetch has run and was not squashing or blocked
system.cpu0.fetch.SquashCycles                 677222                       # Number of cycles fetch has spent squashing
system.cpu0.fetch.TlbCycles                        89                       # Number of cycles fetch has spent waiting for tlb
system.cpu0.fetch.MiscStallCycles                 720                       # Number of cycles fetch has spent waiting on interrupts, or bad addresses, or out of MSHRs
system.cpu0.fetch.PendingTrapStallCycles        15262                       # Number of stall cycles due to pending traps
system.cpu0.fetch.IcacheWaitRetryStallCycles           30                       # Number of stall cycles due to full MSHR
system.cpu0.fetch.CacheLines                  2983461                       # Number of cache lines fetched
system.cpu0.fetch.IcacheSquashes                79500                       # Number of outstanding Icache misses that were squashed
system.cpu0.fetch.ItlbSquashes                      1                       # Number of outstanding ITLB misses that were squashed
system.cpu0.fetch.rateDist::samples          30497677                       # Number of instructions fetched each cycle (Total)
system.cpu0.fetch.rateDist::mean             1.573949                       # Number of instructions fetched each cycle (Total)
system.cpu0.fetch.rateDist::stdev            2.928648                       # Number of instructions fetched each cycle (Total)
system.cpu0.fetch.rateDist::underflows              0      0.00%      0.00% # Number of instructions fetched each cycle (Total)
system.cpu0.fetch.rateDist::0                22581910     74.04%     74.04% # Number of instructions fetched each cycle (Total)
system.cpu0.fetch.rateDist::1                  388821      1.27%     75.32% # Number of instructions fetched each cycle (Total)
system.cpu0.fetch.rateDist::2                  653011      2.14%     77.46% # Number of instructions fetched each cycle (Total)
system.cpu0.fetch.rateDist::3                  450275      1.48%     78.94% # Number of instructions fetched each cycle (Total)
system.cpu0.fetch.rateDist::4                 1012755      3.32%     82.26% # Number of instructions fetched each cycle (Total)
system.cpu0.fetch.rateDist::5                  394050      1.29%     83.55% # Number of instructions fetched each cycle (Total)
system.cpu0.fetch.rateDist::6                  471307      1.55%     85.10% # Number of instructions fetched each cycle (Total)
system.cpu0.fetch.rateDist::7                  257368      0.84%     85.94% # Number of instructions fetched each cycle (Total)
system.cpu0.fetch.rateDist::8                 4288180     14.06%    100.00% # Number of instructions fetched each cycle (Total)
system.cpu0.fetch.rateDist::overflows               0      0.00%    100.00% # Number of instructions fetched each cycle (Total)
system.cpu0.fetch.rateDist::min_value               0                       # Number of instructions fetched each cycle (Total)
system.cpu0.fetch.rateDist::max_value               8                       # Number of instructions fetched each cycle (Total)
system.cpu0.fetch.rateDist::total            30497677                       # Number of instructions fetched each cycle (Total)
system.cpu0.fetch.branchRate                 0.194562                       # Number of branch fetches per cycle
system.cpu0.fetch.rate                       0.810376                       # Number of inst fetches per cycle
system.cpu0.decode.IdleCycles                 2673003                       # Number of cycles decode is idle
system.cpu0.decode.BlockedCycles             20973549                       # Number of cycles decode is blocked
system.cpu0.decode.RunCycles                  5518657                       # Number of cycles decode is running
system.cpu0.decode.UnblockCycles               993857                       # Number of cycles decode is unblocking
system.cpu0.decode.SquashCycles                338611                       # Number of cycles decode is squashing
system.cpu0.decode.DecodedInsts              44655929                       # Number of instructions handled by decode
system.cpu0.rename.SquashCycles                338611                       # Number of cycles rename is squashing
system.cpu0.rename.IdleCycles                 3135480                       # Number of cycles rename is idle
system.cpu0.rename.BlockCycles                7502958                       # Number of cycles rename is blocking
system.cpu0.rename.serializeStallCycles         52081                       # count of cycles rename stalled for serializing inst
system.cpu0.rename.RunCycles                  5965531                       # Number of cycles rename is running
system.cpu0.rename.UnblockCycles             13503016                       # Number of cycles rename is unblocking
system.cpu0.rename.RenamedInsts              42968379                       # Number of instructions processed by rename
system.cpu0.rename.ROBFullEvents                47636                       # Number of times rename has blocked due to ROB full
system.cpu0.rename.IQFullEvents               2856963                       # Number of times rename has blocked due to IQ full
system.cpu0.rename.LQFullEvents               7060957                       # Number of times rename has blocked due to LQ full
system.cpu0.rename.SQFullEvents               5618951                       # Number of times rename has blocked due to SQ full
system.cpu0.rename.RenamedOperands           52796326                       # Number of destination operands rename has renamed
system.cpu0.rename.RenameLookups            109604017                       # Number of register rename lookups that rename has made
system.cpu0.rename.int_rename_lookups        63335951                       # Number of integer rename lookups
system.cpu0.rename.fp_rename_lookups          1011454                       # Number of floating rename lookups
system.cpu0.rename.CommittedMaps             33391529                       # Number of HB maps that are committed
system.cpu0.rename.UndoneMaps                19404904                       # Number of HB maps that are undone due to squashing
system.cpu0.rename.serializingInsts              1770                       # count of serializing insts renamed
system.cpu0.rename.tempSerializingInsts          2140                       # count of temporary serializing insts renamed
system.cpu0.rename.skidInsts                  4131325                       # count of insts added to the skid buffer
system.cpu0.memDep0.insertedLoads             4373573                       # Number of loads inserted to the mem dependence unit.
system.cpu0.memDep0.insertedStores            2104446                       # Number of stores inserted to the mem dependence unit.
system.cpu0.memDep0.conflictingLoads            74934                       # Number of conflicting loads.
system.cpu0.memDep0.conflictingStores           87177                       # Number of conflicting stores.
system.cpu0.iq.iqInstsAdded                  39778781                       # Number of instructions added to the IQ (excludes non-spec)
system.cpu0.iq.iqNonSpecInstsAdded              51951                       # Number of non-speculative instructions added to the IQ
system.cpu0.iq.iqInstsIssued                 34527810                       # Number of instructions issued
system.cpu0.iq.iqSquashedInstsIssued           309663                       # Number of squashed instructions issued
system.cpu0.iq.iqSquashedInstsExamined       13310528                       # Number of squashed instructions iterated over during squash; mainly for profiling
system.cpu0.iq.iqSquashedOperandsExamined     21534430                       # Number of squashed operands that are examined and possibly removed from graph
system.cpu0.iq.iqSquashedNonSpecRemoved         51686                       # Number of squashed non-spec instructions that were removed
system.cpu0.iq.issued_per_cycle::samples     30497677                       # Number of insts issued each cycle
system.cpu0.iq.issued_per_cycle::mean        1.132146                       # Number of insts issued each cycle
system.cpu0.iq.issued_per_cycle::stdev       2.065521                       # Number of insts issued each cycle
system.cpu0.iq.issued_per_cycle::underflows            0      0.00%      0.00% # Number of insts issued each cycle
system.cpu0.iq.issued_per_cycle::0           21211317     69.55%     69.55% # Number of insts issued each cycle
system.cpu0.iq.issued_per_cycle::1            1880460      6.17%     75.72% # Number of insts issued each cycle
system.cpu0.iq.issued_per_cycle::2            1522673      4.99%     80.71% # Number of insts issued each cycle
system.cpu0.iq.issued_per_cycle::3            1062845      3.49%     84.19% # Number of insts issued each cycle
system.cpu0.iq.issued_per_cycle::4            1357849      4.45%     88.65% # Number of insts issued each cycle
system.cpu0.iq.issued_per_cycle::5            1038173      3.40%     92.05% # Number of insts issued each cycle
system.cpu0.iq.issued_per_cycle::6            1442257      4.73%     96.78% # Number of insts issued each cycle
system.cpu0.iq.issued_per_cycle::7             719158      2.36%     99.14% # Number of insts issued each cycle
system.cpu0.iq.issued_per_cycle::8             262945      0.86%    100.00% # Number of insts issued each cycle
system.cpu0.iq.issued_per_cycle::overflows            0      0.00%    100.00% # Number of insts issued each cycle
system.cpu0.iq.issued_per_cycle::min_value            0                       # Number of insts issued each cycle
system.cpu0.iq.issued_per_cycle::max_value            8                       # Number of insts issued each cycle
system.cpu0.iq.issued_per_cycle::total       30497677                       # Number of insts issued each cycle
system.cpu0.iq.fu_full::No_OpClass                  0      0.00%      0.00% # attempts to use FU when none available
system.cpu0.iq.fu_full::IntAlu                1123315     95.49%     95.49% # attempts to use FU when none available
system.cpu0.iq.fu_full::IntMult                     0      0.00%     95.49% # attempts to use FU when none available
system.cpu0.iq.fu_full::IntDiv                      0      0.00%     95.49% # attempts to use FU when none available
system.cpu0.iq.fu_full::FloatAdd                24383      2.07%     97.57% # attempts to use FU when none available
system.cpu0.iq.fu_full::FloatCmp                    0      0.00%     97.57% # attempts to use FU when none available
system.cpu0.iq.fu_full::FloatCvt                    0      0.00%     97.57% # attempts to use FU when none available
system.cpu0.iq.fu_full::FloatMult                   0      0.00%     97.57% # attempts to use FU when none available
system.cpu0.iq.fu_full::FloatMultAcc                0      0.00%     97.57% # attempts to use FU when none available
system.cpu0.iq.fu_full::FloatDiv                    0      0.00%     97.57% # attempts to use FU when none available
system.cpu0.iq.fu_full::FloatMisc                   0      0.00%     97.57% # attempts to use FU when none available
system.cpu0.iq.fu_full::FloatSqrt                   0      0.00%     97.57% # attempts to use FU when none available
system.cpu0.iq.fu_full::SimdAdd                     0      0.00%     97.57% # attempts to use FU when none available
system.cpu0.iq.fu_full::SimdAddAcc                  0      0.00%     97.57% # attempts to use FU when none available
system.cpu0.iq.fu_full::SimdAlu                     0      0.00%     97.57% # attempts to use FU when none available
system.cpu0.iq.fu_full::SimdCmp                     0      0.00%     97.57% # attempts to use FU when none available
system.cpu0.iq.fu_full::SimdCvt                     0      0.00%     97.57% # attempts to use FU when none available
system.cpu0.iq.fu_full::SimdMisc                    0      0.00%     97.57% # attempts to use FU when none available
system.cpu0.iq.fu_full::SimdMult                    0      0.00%     97.57% # attempts to use FU when none available
system.cpu0.iq.fu_full::SimdMultAcc                 0      0.00%     97.57% # attempts to use FU when none available
system.cpu0.iq.fu_full::SimdShift                   0      0.00%     97.57% # attempts to use FU when none available
system.cpu0.iq.fu_full::SimdShiftAcc                0      0.00%     97.57% # attempts to use FU when none available
system.cpu0.iq.fu_full::SimdSqrt                    0      0.00%     97.57% # attempts to use FU when none available
system.cpu0.iq.fu_full::SimdFloatAdd                0      0.00%     97.57% # attempts to use FU when none available
system.cpu0.iq.fu_full::SimdFloatAlu                0      0.00%     97.57% # attempts to use FU when none available
system.cpu0.iq.fu_full::SimdFloatCmp                0      0.00%     97.57% # attempts to use FU when none available
system.cpu0.iq.fu_full::SimdFloatCvt                0      0.00%     97.57% # attempts to use FU when none available
system.cpu0.iq.fu_full::SimdFloatDiv                0      0.00%     97.57% # attempts to use FU when none available
system.cpu0.iq.fu_full::SimdFloatMisc               0      0.00%     97.57% # attempts to use FU when none available
system.cpu0.iq.fu_full::SimdFloatMult               0      0.00%     97.57% # attempts to use FU when none available
system.cpu0.iq.fu_full::SimdFloatMultAcc            0      0.00%     97.57% # attempts to use FU when none available
system.cpu0.iq.fu_full::SimdFloatSqrt               0      0.00%     97.57% # attempts to use FU when none available
system.cpu0.iq.fu_full::MemRead                 17450      1.48%     99.05% # attempts to use FU when none available
system.cpu0.iq.fu_full::MemWrite                 4734      0.40%     99.45% # attempts to use FU when none available
system.cpu0.iq.fu_full::FloatMemRead             2895      0.25%     99.70% # attempts to use FU when none available
system.cpu0.iq.fu_full::FloatMemWrite            3555      0.30%    100.00% # attempts to use FU when none available
system.cpu0.iq.fu_full::IprAccess                   0      0.00%    100.00% # attempts to use FU when none available
system.cpu0.iq.fu_full::InstPrefetch                0      0.00%    100.00% # attempts to use FU when none available
system.cpu0.iq.FU_type_0::No_OpClass           170652      0.49%      0.49% # Type of FU issued
system.cpu0.iq.FU_type_0::IntAlu             28322809     82.03%     82.52% # Type of FU issued
system.cpu0.iq.FU_type_0::IntMult               12744      0.04%     82.56% # Type of FU issued
system.cpu0.iq.FU_type_0::IntDiv               235675      0.68%     83.24% # Type of FU issued
system.cpu0.iq.FU_type_0::FloatAdd             318689      0.92%     84.17% # Type of FU issued
system.cpu0.iq.FU_type_0::FloatCmp                  0      0.00%     84.17% # Type of FU issued
system.cpu0.iq.FU_type_0::FloatCvt                  0      0.00%     84.17% # Type of FU issued
system.cpu0.iq.FU_type_0::FloatMult                 0      0.00%     84.17% # Type of FU issued
system.cpu0.iq.FU_type_0::FloatMultAcc              0      0.00%     84.17% # Type of FU issued
system.cpu0.iq.FU_type_0::FloatDiv                  0      0.00%     84.17% # Type of FU issued
system.cpu0.iq.FU_type_0::FloatMisc                 0      0.00%     84.17% # Type of FU issued
system.cpu0.iq.FU_type_0::FloatSqrt                 0      0.00%     84.17% # Type of FU issued
system.cpu0.iq.FU_type_0::SimdAdd                   0      0.00%     84.17% # Type of FU issued
system.cpu0.iq.FU_type_0::SimdAddAcc                0      0.00%     84.17% # Type of FU issued
system.cpu0.iq.FU_type_0::SimdAlu                   0      0.00%     84.17% # Type of FU issued
system.cpu0.iq.FU_type_0::SimdCmp                   0      0.00%     84.17% # Type of FU issued
system.cpu0.iq.FU_type_0::SimdCvt                   0      0.00%     84.17% # Type of FU issued
system.cpu0.iq.FU_type_0::SimdMisc                  0      0.00%     84.17% # Type of FU issued
system.cpu0.iq.FU_type_0::SimdMult                  0      0.00%     84.17% # Type of FU issued
system.cpu0.iq.FU_type_0::SimdMultAcc               0      0.00%     84.17% # Type of FU issued
system.cpu0.iq.FU_type_0::SimdShift                 0      0.00%     84.17% # Type of FU issued
system.cpu0.iq.FU_type_0::SimdShiftAcc              0      0.00%     84.17% # Type of FU issued
system.cpu0.iq.FU_type_0::SimdSqrt                  0      0.00%     84.17% # Type of FU issued
system.cpu0.iq.FU_type_0::SimdFloatAdd              0      0.00%     84.17% # Type of FU issued
system.cpu0.iq.FU_type_0::SimdFloatAlu              0      0.00%     84.17% # Type of FU issued
system.cpu0.iq.FU_type_0::SimdFloatCmp              0      0.00%     84.17% # Type of FU issued
system.cpu0.iq.FU_type_0::SimdFloatCvt              0      0.00%     84.17% # Type of FU issued
system.cpu0.iq.FU_type_0::SimdFloatDiv              0      0.00%     84.17% # Type of FU issued
system.cpu0.iq.FU_type_0::SimdFloatMisc             0      0.00%     84.17% # Type of FU issued
system.cpu0.iq.FU_type_0::SimdFloatMult             0      0.00%     84.17% # Type of FU issued
system.cpu0.iq.FU_type_0::SimdFloatMultAcc            0      0.00%     84.17% # Type of FU issued
system.cpu0.iq.FU_type_0::SimdFloatSqrt             0      0.00%     84.17% # Type of FU issued
system.cpu0.iq.FU_type_0::MemRead             3519106     10.19%     94.36% # Type of FU issued
system.cpu0.iq.FU_type_0::MemWrite            1684798      4.88%     99.24% # Type of FU issued
system.cpu0.iq.FU_type_0::FloatMemRead          64641      0.19%     99.42% # Type of FU issued
system.cpu0.iq.FU_type_0::FloatMemWrite        198696      0.58%    100.00% # Type of FU issued
system.cpu0.iq.FU_type_0::IprAccess                 0      0.00%    100.00% # Type of FU issued
system.cpu0.iq.FU_type_0::InstPrefetch              0      0.00%    100.00% # Type of FU issued
system.cpu0.iq.FU_type_0::total              34527810                       # Type of FU issued
system.cpu0.iq.rate                          1.130773                       # Inst issue rate
system.cpu0.iq.fu_busy_cnt                    1176332                       # FU busy when requested
system.cpu0.iq.fu_busy_rate                  0.034069                       # FU busy rate (busy events/executed inst)
system.cpu0.iq.int_inst_queue_reads          99836095                       # Number of integer instruction queue reads
system.cpu0.iq.int_inst_queue_writes         52307837                       # Number of integer instruction queue writes
system.cpu0.iq.int_inst_queue_wakeup_accesses     32873982                       # Number of integer instruction queue wakeup accesses
system.cpu0.iq.fp_inst_queue_reads            1203203                       # Number of floating instruction queue reads
system.cpu0.iq.fp_inst_queue_writes            833560                       # Number of floating instruction queue writes
system.cpu0.iq.fp_inst_queue_wakeup_accesses       554399                       # Number of floating instruction queue wakeup accesses
system.cpu0.iq.vec_inst_queue_reads                 0                       # Number of vector instruction queue reads
system.cpu0.iq.vec_inst_queue_writes                0                       # Number of vector instruction queue writes
system.cpu0.iq.vec_inst_queue_wakeup_accesses            0                       # Number of vector instruction queue wakeup accesses
system.cpu0.iq.int_alu_accesses              34919041                       # Number of integer alu accesses
system.cpu0.iq.fp_alu_accesses                 614449                       # Number of floating point alu accesses
system.cpu0.iq.vec_alu_accesses                     0                       # Number of vector alu accesses
system.cpu0.iew.lsq.thread0.forwLoads          187100                       # Number of loads that had data forwarded from stores
system.cpu0.iew.lsq.thread0.invAddrLoads            0                       # Number of loads ignored due to an invalid address
system.cpu0.iew.lsq.thread0.squashedLoads      1882690                       # Number of loads squashed
system.cpu0.iew.lsq.thread0.ignoredResponses         3291                       # Number of memory responses ignored because the instruction is squashed
system.cpu0.iew.lsq.thread0.memOrderViolation          175                       # Number of memory ordering violations
system.cpu0.iew.lsq.thread0.squashedStores       449197                       # Number of stores squashed
system.cpu0.iew.lsq.thread0.invAddrSwpfs            0                       # Number of software prefetches ignored due to an invalid address
system.cpu0.iew.lsq.thread0.blockedLoads            0                       # Number of blocked loads due to partial load-store forwarding
system.cpu0.iew.lsq.thread0.rescheduledLoads         1107                       # Number of loads that were rescheduled
system.cpu0.iew.lsq.thread0.cacheBlocked          291                       # Number of times an access to memory failed due to the cache being blocked
system.cpu0.iew.iewIdleCycles                       0                       # Number of cycles IEW is idle
system.cpu0.iew.iewSquashCycles                338611                       # Number of cycles IEW is squashing
system.cpu0.iew.iewBlockCycles                2964947                       # Number of cycles IEW is blocking
system.cpu0.iew.iewUnblockCycles              3885686                       # Number of cycles IEW is unblocking
system.cpu0.iew.iewDispatchedInsts           39830732                       # Number of instructions dispatched to IQ
system.cpu0.iew.iewDispSquashedInsts            14643                       # Number of squashed instructions skipped by dispatch
system.cpu0.iew.iewDispLoadInsts              4373573                       # Number of dispatched load instructions
system.cpu0.iew.iewDispStoreInsts             2104446                       # Number of dispatched store instructions
system.cpu0.iew.iewDispNonSpecInsts             18561                       # Number of dispatched non-speculative instructions
system.cpu0.iew.iewIQFullEvents                 15439                       # Number of times the IQ has become full, causing a stall
system.cpu0.iew.iewLSQFullEvents              3813157                       # Number of times the LSQ has become full, causing a stall
system.cpu0.iew.memOrderViolationEvents           175                       # Number of memory order violations
system.cpu0.iew.predictedTakenIncorrect        138705                       # Number of branches that were predicted taken incorrectly
system.cpu0.iew.predictedNotTakenIncorrect       284541                       # Number of branches that were predicted not taken incorrectly
system.cpu0.iew.branchMispredicts              423246                       # Number of branch mispredicts detected at execute
system.cpu0.iew.iewExecutedInsts             33849500                       # Number of executed instructions
system.cpu0.iew.iewExecLoadInsts              3395238                       # Number of load instructions executed
system.cpu0.iew.iewExecSquashedInsts           678316                       # Number of squashed instructions skipped in execute
system.cpu0.iew.exec_swp                            0                       # number of swp insts executed
system.cpu0.iew.exec_nop                            0                       # number of nop insts executed
system.cpu0.iew.exec_refs                     5232935                       # number of memory reference insts executed
system.cpu0.iew.exec_branches                 3731619                       # Number of branches executed
system.cpu0.iew.exec_stores                   1837697                       # Number of stores executed
system.cpu0.iew.exec_rate                    1.108559                       # Inst execution rate
system.cpu0.iew.wb_sent                      33599914                       # cumulative count of insts sent to commit
system.cpu0.iew.wb_count                     33428381                       # cumulative count of insts written-back
system.cpu0.iew.wb_producers                 24869340                       # num instructions producing a value
system.cpu0.iew.wb_consumers                 42093156                       # num instructions consuming a value
system.cpu0.iew.wb_rate                      1.094767                       # insts written-back per cycle
system.cpu0.iew.wb_fanout                    0.590817                       # average fanout of values written-back
system.cpu0.commit.commitSquashedInsts       13311405                       # The number of squashed insts skipped by commit
system.cpu0.commit.commitNonSpecStalls            265                       # The number of times commit has been forced to stall to communicate backwards
system.cpu0.commit.branchMispredicts           338510                       # The number of times a branch was mispredicted
system.cpu0.commit.committed_per_cycle::samples     28538809                       # Number of insts commited each cycle
system.cpu0.commit.committed_per_cycle::mean     0.929270                       # Number of insts commited each cycle
system.cpu0.commit.committed_per_cycle::stdev     2.091559                       # Number of insts commited each cycle
system.cpu0.commit.committed_per_cycle::underflows            0      0.00%      0.00% # Number of insts commited each cycle
system.cpu0.commit.committed_per_cycle::0     21536072     75.46%     75.46% # Number of insts commited each cycle
system.cpu0.commit.committed_per_cycle::1      1922095      6.74%     82.20% # Number of insts commited each cycle
system.cpu0.commit.committed_per_cycle::2       831860      2.91%     85.11% # Number of insts commited each cycle
system.cpu0.commit.committed_per_cycle::3      1465633      5.14%     90.25% # Number of insts commited each cycle
system.cpu0.commit.committed_per_cycle::4       506862      1.78%     92.02% # Number of insts commited each cycle
system.cpu0.commit.committed_per_cycle::5       394892      1.38%     93.41% # Number of insts commited each cycle
system.cpu0.commit.committed_per_cycle::6       196150      0.69%     94.09% # Number of insts commited each cycle
system.cpu0.commit.committed_per_cycle::7       123231      0.43%     94.53% # Number of insts commited each cycle
system.cpu0.commit.committed_per_cycle::8      1562014      5.47%    100.00% # Number of insts commited each cycle
system.cpu0.commit.committed_per_cycle::overflows            0      0.00%    100.00% # Number of insts commited each cycle
system.cpu0.commit.committed_per_cycle::min_value            0                       # Number of insts commited each cycle
system.cpu0.commit.committed_per_cycle::max_value            8                       # Number of insts commited each cycle
system.cpu0.commit.committed_per_cycle::total     28538809                       # Number of insts commited each cycle
system.cpu0.commit.committedInsts            14173446                       # Number of instructions committed
system.cpu0.commit.committedOps              26520251                       # Number of ops (including micro ops) committed
system.cpu0.commit.swp_count                        0                       # Number of s/w prefetches committed
system.cpu0.commit.refs                       4146118                       # Number of memory references committed
system.cpu0.commit.loads                      2490869                       # Number of loads committed
system.cpu0.commit.membars                        160                       # Number of memory barriers committed
system.cpu0.commit.branches                   3144960                       # Number of branches committed
system.cpu0.commit.vec_insts                        0                       # Number of committed Vector instructions.
system.cpu0.commit.fp_insts                    505422                       # Number of committed floating point instructions.
system.cpu0.commit.int_insts                 26200083                       # Number of committed integer instructions.
system.cpu0.commit.function_calls              138393                       # Number of function calls committed.
system.cpu0.commit.op_class_0::No_OpClass        99957      0.38%      0.38% # Class of committed instruction
system.cpu0.commit.op_class_0::IntAlu        21791279     82.17%     82.55% # Class of committed instruction
system.cpu0.commit.op_class_0::IntMult           7030      0.03%     82.57% # Class of committed instruction
system.cpu0.commit.op_class_0::IntDiv          213823      0.81%     83.38% # Class of committed instruction
system.cpu0.commit.op_class_0::FloatAdd        262044      0.99%     84.37% # Class of committed instruction
system.cpu0.commit.op_class_0::FloatCmp             0      0.00%     84.37% # Class of committed instruction
system.cpu0.commit.op_class_0::FloatCvt             0      0.00%     84.37% # Class of committed instruction
system.cpu0.commit.op_class_0::FloatMult            0      0.00%     84.37% # Class of committed instruction
system.cpu0.commit.op_class_0::FloatMultAcc            0      0.00%     84.37% # Class of committed instruction
system.cpu0.commit.op_class_0::FloatDiv             0      0.00%     84.37% # Class of committed instruction
system.cpu0.commit.op_class_0::FloatMisc            0      0.00%     84.37% # Class of committed instruction
system.cpu0.commit.op_class_0::FloatSqrt            0      0.00%     84.37% # Class of committed instruction
system.cpu0.commit.op_class_0::SimdAdd              0      0.00%     84.37% # Class of committed instruction
system.cpu0.commit.op_class_0::SimdAddAcc            0      0.00%     84.37% # Class of committed instruction
system.cpu0.commit.op_class_0::SimdAlu              0      0.00%     84.37% # Class of committed instruction
system.cpu0.commit.op_class_0::SimdCmp              0      0.00%     84.37% # Class of committed instruction
system.cpu0.commit.op_class_0::SimdCvt              0      0.00%     84.37% # Class of committed instruction
system.cpu0.commit.op_class_0::SimdMisc             0      0.00%     84.37% # Class of committed instruction
system.cpu0.commit.op_class_0::SimdMult             0      0.00%     84.37% # Class of committed instruction
system.cpu0.commit.op_class_0::SimdMultAcc            0      0.00%     84.37% # Class of committed instruction
system.cpu0.commit.op_class_0::SimdShift            0      0.00%     84.37% # Class of committed instruction
system.cpu0.commit.op_class_0::SimdShiftAcc            0      0.00%     84.37% # Class of committed instruction
system.cpu0.commit.op_class_0::SimdSqrt             0      0.00%     84.37% # Class of committed instruction
system.cpu0.commit.op_class_0::SimdFloatAdd            0      0.00%     84.37% # Class of committed instruction
system.cpu0.commit.op_class_0::SimdFloatAlu            0      0.00%     84.37% # Class of committed instruction
system.cpu0.commit.op_class_0::SimdFloatCmp            0      0.00%     84.37% # Class of committed instruction
system.cpu0.commit.op_class_0::SimdFloatCvt            0      0.00%     84.37% # Class of committed instruction
system.cpu0.commit.op_class_0::SimdFloatDiv            0      0.00%     84.37% # Class of committed instruction
system.cpu0.commit.op_class_0::SimdFloatMisc            0      0.00%     84.37% # Class of committed instruction
system.cpu0.commit.op_class_0::SimdFloatMult            0      0.00%     84.37% # Class of committed instruction
system.cpu0.commit.op_class_0::SimdFloatMultAcc            0      0.00%     84.37% # Class of committed instruction
system.cpu0.commit.op_class_0::SimdFloatSqrt            0      0.00%     84.37% # Class of committed instruction
system.cpu0.commit.op_class_0::MemRead        2446715      9.23%     93.59% # Class of committed instruction
system.cpu0.commit.op_class_0::MemWrite       1457370      5.50%     99.09% # Class of committed instruction
system.cpu0.commit.op_class_0::FloatMemRead        44154      0.17%     99.25% # Class of committed instruction
system.cpu0.commit.op_class_0::FloatMemWrite       197879      0.75%    100.00% # Class of committed instruction
system.cpu0.commit.op_class_0::IprAccess            0      0.00%    100.00% # Class of committed instruction
system.cpu0.commit.op_class_0::InstPrefetch            0      0.00%    100.00% # Class of committed instruction
system.cpu0.commit.op_class_0::total         26520251                       # Class of committed instruction
system.cpu0.commit.bw_lim_events              1562014                       # number cycles where commit BW limit reached
system.cpu0.rob.rob_reads                    66808451                       # The number of ROB reads
system.cpu0.rob.rob_writes                   81640832                       # The number of ROB writes
system.cpu0.timesIdled                            374                       # Number of times that the entire CPU went into an idle state and unscheduled itself
system.cpu0.idleCycles                          37011                       # Total number of cycles that the CPU has spent unscheduled due to idling
system.cpu0.committedInsts                   14173446                       # Number of Instructions Simulated
system.cpu0.committedOps                     26520251                       # Number of Ops (including micro ops) Simulated
system.cpu0.cpi                              2.154359                       # CPI: Cycles Per Instruction
system.cpu0.cpi_total                        2.154359                       # CPI: Total CPI of All Threads
system.cpu0.ipc                              0.464175                       # IPC: Instructions Per Cycle
system.cpu0.ipc_total                        0.464175                       # IPC: Total IPC of All Threads
system.cpu0.int_regfile_reads                47181748                       # number of integer regfile reads
system.cpu0.int_regfile_writes               28046804                       # number of integer regfile writes
system.cpu0.fp_regfile_reads                   819550                       # number of floating regfile reads
system.cpu0.fp_regfile_writes                  312368                       # number of floating regfile writes
system.cpu0.cc_regfile_reads                 19799565                       # number of cc regfile reads
system.cpu0.cc_regfile_writes                13119893                       # number of cc regfile writes
system.cpu0.misc_regfile_reads               13370528                       # number of misc regfile reads
system.cpu0.dcache.tags.pwrStateResidencyTicks::UNDEFINED  15267344125                       # Cumulative time (in ticks) in various power states
system.cpu0.dcache.tags.replacements           304248                       # number of replacements
system.cpu0.dcache.tags.tagsinuse                 512                       # Cycle average of tags in use
system.cpu0.dcache.tags.total_refs            5584386                       # Total number of references to valid blocks.
system.cpu0.dcache.tags.sampled_refs           304248                       # Sample count of references to valid blocks.
system.cpu0.dcache.tags.avg_refs            18.354717                       # Average number of references to valid blocks.
system.cpu0.dcache.tags.warmup_cycle                0                       # Cycle when the warmup percentage was hit.
system.cpu0.dcache.tags.occ_blocks::cpu0.data          512                       # Average occupied blocks per requestor
system.cpu0.dcache.tags.occ_percent::cpu0.data            1                       # Average percentage of cache occupancy
system.cpu0.dcache.tags.occ_percent::total            1                       # Average percentage of cache occupancy
system.cpu0.dcache.tags.occ_task_id_blocks::1024          512                       # Occupied blocks per task id
system.cpu0.dcache.tags.age_task_id_blocks_1024::0          375                       # Occupied blocks per task id
system.cpu0.dcache.tags.age_task_id_blocks_1024::1          111                       # Occupied blocks per task id
system.cpu0.dcache.tags.age_task_id_blocks_1024::2            9                       # Occupied blocks per task id
system.cpu0.dcache.tags.age_task_id_blocks_1024::3           17                       # Occupied blocks per task id
system.cpu0.dcache.tags.occ_task_id_percent::1024            1                       # Percentage of cache occupancy per task id
system.cpu0.dcache.tags.tag_accesses         19591228                       # Number of tag accesses
system.cpu0.dcache.tags.data_accesses        19591228                       # Number of data accesses
system.cpu0.dcache.pwrStateResidencyTicks::UNDEFINED  15267344125                       # Cumulative time (in ticks) in various power states
system.cpu0.dcache.ReadReq_hits::cpu0.data      2774965                       # number of ReadReq hits
system.cpu0.dcache.ReadReq_hits::total        2774965                       # number of ReadReq hits
system.cpu0.dcache.WriteReq_hits::cpu0.data      1589590                       # number of WriteReq hits
system.cpu0.dcache.WriteReq_hits::total       1589590                       # number of WriteReq hits
system.cpu0.dcache.demand_hits::cpu0.data      4364555                       # number of demand (read+write) hits
system.cpu0.dcache.demand_hits::total         4364555                       # number of demand (read+write) hits
system.cpu0.dcache.overall_hits::cpu0.data      4364555                       # number of overall hits
system.cpu0.dcache.overall_hits::total        4364555                       # number of overall hits
system.cpu0.dcache.ReadReq_misses::cpu0.data       390998                       # number of ReadReq misses
system.cpu0.dcache.ReadReq_misses::total       390998                       # number of ReadReq misses
system.cpu0.dcache.WriteReq_misses::cpu0.data        66192                       # number of WriteReq misses
system.cpu0.dcache.WriteReq_misses::total        66192                       # number of WriteReq misses
system.cpu0.dcache.demand_misses::cpu0.data       457190                       # number of demand (read+write) misses
system.cpu0.dcache.demand_misses::total        457190                       # number of demand (read+write) misses
system.cpu0.dcache.overall_misses::cpu0.data       457190                       # number of overall misses
system.cpu0.dcache.overall_misses::total       457190                       # number of overall misses
system.cpu0.dcache.ReadReq_miss_latency::cpu0.data  10246519000                       # number of ReadReq miss cycles
system.cpu0.dcache.ReadReq_miss_latency::total  10246519000                       # number of ReadReq miss cycles
system.cpu0.dcache.WriteReq_miss_latency::cpu0.data   5216447997                       # number of WriteReq miss cycles
system.cpu0.dcache.WriteReq_miss_latency::total   5216447997                       # number of WriteReq miss cycles
system.cpu0.dcache.demand_miss_latency::cpu0.data  15462966997                       # number of demand (read+write) miss cycles
system.cpu0.dcache.demand_miss_latency::total  15462966997                       # number of demand (read+write) miss cycles
system.cpu0.dcache.overall_miss_latency::cpu0.data  15462966997                       # number of overall miss cycles
system.cpu0.dcache.overall_miss_latency::total  15462966997                       # number of overall miss cycles
system.cpu0.dcache.ReadReq_accesses::cpu0.data      3165963                       # number of ReadReq accesses(hits+misses)
system.cpu0.dcache.ReadReq_accesses::total      3165963                       # number of ReadReq accesses(hits+misses)
system.cpu0.dcache.WriteReq_accesses::cpu0.data      1655782                       # number of WriteReq accesses(hits+misses)
system.cpu0.dcache.WriteReq_accesses::total      1655782                       # number of WriteReq accesses(hits+misses)
system.cpu0.dcache.demand_accesses::cpu0.data      4821745                       # number of demand (read+write) accesses
system.cpu0.dcache.demand_accesses::total      4821745                       # number of demand (read+write) accesses
system.cpu0.dcache.overall_accesses::cpu0.data      4821745                       # number of overall (read+write) accesses
[...]
system.l2.demand_miss_rate::cpu0.data        0.398710                       # miss rate for demand accesses
system.l2.demand_miss_rate::total            0.399265                       # miss rate for demand accesses
system.l2.overall_miss_rate::cpu0.inst       0.600715                       # miss rate for overall accesses
system.l2.overall_miss_rate::cpu0.data       0.398710                       # miss rate for overall accesses
system.l2.overall_miss_rate::total           0.399265                       # miss rate for overall accesses
system.l2.ReadExReq_avg_miss_latency::cpu0.data 82530.261416                       # average ReadExReq miss latency
system.l2.ReadExReq_avg_miss_latency::total 82530.261416                       # average ReadExReq miss latency
system.l2.ReadCleanReq_avg_miss_latency::cpu0.inst 99988.095238                       # average ReadCleanReq miss latency
system.l2.ReadCleanReq_avg_miss_latency::total 99988.095238                       # average ReadCleanReq miss latency
system.l2.ReadSharedReq_avg_miss_latency::cpu0.data 81449.627877                       # average ReadSharedReq miss latency
system.l2.ReadSharedReq_avg_miss_latency::total 81449.627877                       # average ReadSharedReq miss latency
system.l2.demand_avg_miss_latency::cpu0.inst 99988.095238                       # average overall miss latency
system.l2.demand_avg_miss_latency::cpu0.data 81988.042735                       # average overall miss latency
system.l2.demand_avg_miss_latency::total 82062.518984                       # average overall miss latency
system.l2.overall_avg_miss_latency::cpu0.inst 99988.095238                       # average overall miss latency
system.l2.overall_avg_miss_latency::cpu0.data 81988.042735                       # average overall miss latency
system.l2.overall_avg_miss_latency::total 82062.518984                       # average overall miss latency
system.l2.blocked_cycles::no_mshrs                  0                       # number of cycles access was blocked
system.l2.blocked_cycles::no_targets                0                       # number of cycles access was blocked
system.l2.blocked::no_mshrs                         0                       # number of cycles access was blocked
system.l2.blocked::no_targets                       0                       # number of cycles access was blocked
system.l2.avg_blocked_cycles::no_mshrs            nan                       # average number of cycles each access was blocked
system.l2.avg_blocked_cycles::no_targets          nan                       # average number of cycles each access was blocked
system.l2.writebacks::writebacks                14877                       # number of writebacks
system.l2.writebacks::total                     14877                       # number of writebacks
system.l2.ReadExReq_mshr_misses::cpu0.data        60440                       # number of ReadExReq MSHR misses
system.l2.ReadExReq_mshr_misses::total          60440                       # number of ReadExReq MSHR misses
system.l2.ReadCleanReq_mshr_misses::cpu0.inst          504                       # number of ReadCleanReq MSHR misses
system.l2.ReadCleanReq_mshr_misses::total          504                       # number of ReadCleanReq MSHR misses
system.l2.ReadSharedReq_mshr_misses::cpu0.data        60867                       # number of ReadSharedReq MSHR misses
system.l2.ReadSharedReq_mshr_misses::total        60867                       # number of ReadSharedReq MSHR misses
system.l2.demand_mshr_misses::cpu0.inst           504                       # number of demand (read+write) MSHR misses
system.l2.demand_mshr_misses::cpu0.data        121307                       # number of demand (read+write) MSHR misses
system.l2.demand_mshr_misses::total            121811                       # number of demand (read+write) MSHR misses
system.l2.overall_mshr_misses::cpu0.inst          504                       # number of overall MSHR misses
system.l2.overall_mshr_misses::cpu0.data       121307                       # number of overall MSHR misses
system.l2.overall_mshr_misses::total           121811                       # number of overall MSHR misses
system.l2.ReadExReq_mshr_miss_latency::cpu0.data   4383729000                       # number of ReadExReq MSHR miss cycles
system.l2.ReadExReq_mshr_miss_latency::total   4383729000                       # number of ReadExReq MSHR miss cycles
system.l2.ReadCleanReq_mshr_miss_latency::cpu0.inst     45354000                       # number of ReadCleanReq MSHR miss cycles
system.l2.ReadCleanReq_mshr_miss_latency::total     45354000                       # number of ReadCleanReq MSHR miss cycles
system.l2.ReadSharedReq_mshr_miss_latency::cpu0.data   4348924500                       # number of ReadSharedReq MSHR miss cycles
system.l2.ReadSharedReq_mshr_miss_latency::total   4348924500                       # number of ReadSharedReq MSHR miss cycles
system.l2.demand_mshr_miss_latency::cpu0.inst     45354000                       # number of demand (read+write) MSHR miss cycles
system.l2.demand_mshr_miss_latency::cpu0.data   8732653500                       # number of demand (read+write) MSHR miss cycles
system.l2.demand_mshr_miss_latency::total   8778007500                       # number of demand (read+write) MSHR miss cycles
system.l2.overall_mshr_miss_latency::cpu0.inst     45354000                       # number of overall MSHR miss cycles
system.l2.overall_mshr_miss_latency::cpu0.data   8732653500                       # number of overall MSHR miss cycles
system.l2.overall_mshr_miss_latency::total   8778007500                       # number of overall MSHR miss cycles
system.l2.ReadExReq_mshr_miss_rate::cpu0.data     0.913598                       # mshr miss rate for ReadExReq accesses
system.l2.ReadExReq_mshr_miss_rate::total     0.913598                       # mshr miss rate for ReadExReq accesses
system.l2.ReadCleanReq_mshr_miss_rate::cpu0.inst     0.600715                       # mshr miss rate for ReadCleanReq accesses
system.l2.ReadCleanReq_mshr_miss_rate::total     0.600715                       # mshr miss rate for ReadCleanReq accesses
system.l2.ReadSharedReq_mshr_miss_rate::cpu0.data     0.255644                       # mshr miss rate for ReadSharedReq accesses
system.l2.ReadSharedReq_mshr_miss_rate::total     0.255644                       # mshr miss rate for ReadSharedReq accesses
system.l2.demand_mshr_miss_rate::cpu0.inst     0.600715                       # mshr miss rate for demand accesses
system.l2.demand_mshr_miss_rate::cpu0.data     0.398710                       # mshr miss rate for demand accesses
system.l2.demand_mshr_miss_rate::total       0.399265                       # mshr miss rate for demand accesses
system.l2.overall_mshr_miss_rate::cpu0.inst     0.600715                       # mshr miss rate for overall accesses
system.l2.overall_mshr_miss_rate::cpu0.data     0.398710                       # mshr miss rate for overall accesses
system.l2.overall_mshr_miss_rate::total      0.399265                       # mshr miss rate for overall accesses
system.l2.ReadExReq_avg_mshr_miss_latency::cpu0.data 72530.261416                       # average ReadExReq mshr miss latency
system.l2.ReadExReq_avg_mshr_miss_latency::total 72530.261416                       # average ReadExReq mshr miss latency
system.l2.ReadCleanReq_avg_mshr_miss_latency::cpu0.inst 89988.095238                       # average ReadCleanReq mshr miss latency
system.l2.ReadCleanReq_avg_mshr_miss_latency::total 89988.095238                       # average ReadCleanReq mshr miss latency
system.l2.ReadSharedReq_avg_mshr_miss_latency::cpu0.data 71449.627877                       # average ReadSharedReq mshr miss latency
system.l2.ReadSharedReq_avg_mshr_miss_latency::total 71449.627877                       # average ReadSharedReq mshr miss latency
system.l2.demand_avg_mshr_miss_latency::cpu0.inst 89988.095238                       # average overall mshr miss latency
system.l2.demand_avg_mshr_miss_latency::cpu0.data 71988.042735                       # average overall mshr miss latency
system.l2.demand_avg_mshr_miss_latency::total 72062.518984                       # average overall mshr miss latency
system.l2.overall_avg_mshr_miss_latency::cpu0.inst 89988.095238                       # average overall mshr miss latency
system.l2.overall_avg_mshr_miss_latency::cpu0.data 71988.042735                       # average overall mshr miss latency
system.l2.overall_avg_mshr_miss_latency::total 72062.518984                       # average overall mshr miss latency
system.membus.snoop_filter.tot_requests        243769                       # Total number of requests made to the snoop filter.
system.membus.snoop_filter.hit_single_requests       121958                       # Number of requests hitting in the snoop filter with a single holder of the requested data.
system.membus.snoop_filter.hit_multi_requests            0                       # Number of requests hitting in the snoop filter with multiple (>1) holders of the requested data.
system.membus.snoop_filter.tot_snoops               0                       # Total number of snoops made to the snoop filter.
system.membus.snoop_filter.hit_single_snoops            0                       # Number of snoops hitting in the snoop filter with a single holder of the requested data.
system.membus.snoop_filter.hit_multi_snoops            0                       # Number of snoops hitting in the snoop filter with multiple (>1) holders of the requested data.
system.membus.pwrStateResidencyTicks::UNDEFINED  15267344125                       # Cumulative time (in ticks) in various power states
system.membus.trans_dist::ReadResp              61371                       # Transaction distribution
system.membus.trans_dist::WritebackDirty        14877                       # Transaction distribution
system.membus.trans_dist::CleanEvict           107081                       # Transaction distribution
system.membus.trans_dist::ReadExReq             60440                       # Transaction distribution
system.membus.trans_dist::ReadExResp            60440                       # Transaction distribution
system.membus.trans_dist::ReadSharedReq         61371                       # Transaction distribution
system.membus.pkt_count_system.l2.mem_side::system.mem_ctrls.port       365580                       # Packet count per connected master and slave (bytes)
system.membus.pkt_count_system.l2.mem_side::total       365580                       # Packet count per connected master and slave (bytes)
system.membus.pkt_count::total                 365580                       # Packet count per connected master and slave (bytes)
system.membus.pkt_size_system.l2.mem_side::system.mem_ctrls.port      8748032                       # Cumulative packet size per connected master and slave (bytes)
system.membus.pkt_size_system.l2.mem_side::total      8748032                       # Cumulative packet size per connected master and slave (bytes)
system.membus.pkt_size::total                 8748032                       # Cumulative packet size per connected master and slave (bytes)
system.membus.snoops                                0                       # Total snoops (count)
system.membus.snoopTraffic                          0                       # Total snoop traffic (bytes)
system.membus.snoop_fanout::samples            121811                       # Request fanout histogram
system.membus.snoop_fanout::mean                    0                       # Request fanout histogram
system.membus.snoop_fanout::stdev                   0                       # Request fanout histogram
system.membus.snoop_fanout::underflows              0      0.00%      0.00% # Request fanout histogram
system.membus.snoop_fanout::0                  121811    100.00%    100.00% # Request fanout histogram
system.membus.snoop_fanout::1                       0      0.00%    100.00% # Request fanout histogram
system.membus.snoop_fanout::overflows               0      0.00%    100.00% # Request fanout histogram
system.membus.snoop_fanout::min_value               0                       # Request fanout histogram
system.membus.snoop_fanout::max_value               0                       # Request fanout histogram
system.membus.snoop_fanout::total              121811                       # Request fanout histogram
system.membus.reqLayer12.occupancy          308505500                       # Layer occupancy (ticks)
system.membus.reqLayer12.utilization              2.0                       # Layer utilization (%)
system.membus.respLayer1.occupancy          644119500                       # Layer occupancy (ticks)
system.membus.respLayer1.utilization              4.2                       # Layer utilization (%)
system.tol2bus.snoop_filter.tot_requests       610175                       # Total number of requests made to the snoop filter.
system.tol2bus.snoop_filter.hit_single_requests       305085                       # Number of requests hitting in the snoop filter with a single holder of the requested data.
system.tol2bus.snoop_filter.hit_multi_requests           16                       # Number of requests hitting in the snoop filter with multiple (>1) holders of the requested data.
system.tol2bus.snoop_filter.tot_snoops            214                       # Total number of snoops made to the snoop filter.
system.tol2bus.snoop_filter.hit_single_snoops          214                       # Number of snoops hitting in the snoop filter with a single holder of the requested data.
system.tol2bus.snoop_filter.hit_multi_snoops            0                       # Number of snoops hitting in the snoop filter with multiple (>1) holders of the requested data.
system.tol2bus.pwrStateResidencyTicks::UNDEFINED  15267344125                       # Cumulative time (in ticks) in various power states
system.tol2bus.trans_dist::ReadResp            238933                       # Transaction distribution
system.tol2bus.trans_dist::WritebackDirty       241679                       # Transaction distribution
system.tol2bus.trans_dist::WritebackClean          837                       # Transaction distribution
system.tol2bus.trans_dist::CleanEvict          184739                       # Transaction distribution
system.tol2bus.trans_dist::ReadExReq            66156                       # Transaction distribution
system.tol2bus.trans_dist::ReadExResp           66156                       # Transaction distribution
system.tol2bus.trans_dist::ReadCleanReq           841                       # Transaction distribution
system.tol2bus.trans_dist::ReadSharedReq       238093                       # Transaction distribution
system.tol2bus.pkt_count_system.cpu0.icache.mem_side::system.l2.cpu_side         2517                       # Packet count per connected master and slave (bytes)
system.tol2bus.pkt_count_system.cpu0.dcache.mem_side::system.l2.cpu_side       912745                       # Packet count per connected master and slave (bytes)
system.tol2bus.pkt_count::total                915262                       # Packet count per connected master and slave (bytes)
system.tol2bus.pkt_size_system.cpu0.icache.mem_side::system.l2.cpu_side       107264                       # Cumulative packet size per connected master and slave (bytes)
system.tol2bus.pkt_size_system.cpu0.dcache.mem_side::system.l2.cpu_side     33987200                       # Cumulative packet size per connected master and slave (bytes)
system.tol2bus.pkt_size::total               34094464                       # Cumulative packet size per connected master and slave (bytes)
system.tol2bus.snoops                          122172                       # Total snoops (count)
system.tol2bus.snoopTraffic                    952256                       # Total snoop traffic (bytes)
system.tol2bus.snoop_fanout::samples           427260                       # Request fanout histogram
system.tol2bus.snoop_fanout::mean            0.000538                       # Request fanout histogram
system.tol2bus.snoop_fanout::stdev           0.023195                       # Request fanout histogram
system.tol2bus.snoop_fanout::underflows             0      0.00%      0.00% # Request fanout histogram
system.tol2bus.snoop_fanout::0                 427030     99.95%     99.95% # Request fanout histogram
system.tol2bus.snoop_fanout::1                    230      0.05%    100.00% # Request fanout histogram
system.tol2bus.snoop_fanout::2                      0      0.00%    100.00% # Request fanout histogram
system.tol2bus.snoop_fanout::3                      0      0.00%    100.00% # Request fanout histogram
system.tol2bus.snoop_fanout::4                      0      0.00%    100.00% # Request fanout histogram
system.tol2bus.snoop_fanout::5                      0      0.00%    100.00% # Request fanout histogram
system.tol2bus.snoop_fanout::6                      0      0.00%    100.00% # Request fanout histogram
system.tol2bus.snoop_fanout::7                      0      0.00%    100.00% # Request fanout histogram
system.tol2bus.snoop_fanout::8                      0      0.00%    100.00% # Request fanout histogram
system.tol2bus.snoop_fanout::9                      0      0.00%    100.00% # Request fanout histogram
system.tol2bus.snoop_fanout::10                     0      0.00%    100.00% # Request fanout histogram
system.tol2bus.snoop_fanout::11                     0      0.00%    100.00% # Request fanout histogram
system.tol2bus.snoop_fanout::12                     0      0.00%    100.00% # Request fanout histogram
system.tol2bus.snoop_fanout::13                     0      0.00%    100.00% # Request fanout histogram
system.tol2bus.snoop_fanout::14                     0      0.00%    100.00% # Request fanout histogram
system.tol2bus.snoop_fanout::15                     0      0.00%    100.00% # Request fanout histogram
system.tol2bus.snoop_fanout::16                     0      0.00%    100.00% # Request fanout histogram
system.tol2bus.snoop_fanout::17                     0      0.00%    100.00% # Request fanout histogram
system.tol2bus.snoop_fanout::18                     0      0.00%    100.00% # Request fanout histogram
system.tol2bus.snoop_fanout::19                     0      0.00%    100.00% # Request fanout histogram
system.tol2bus.snoop_fanout::20                     0      0.00%    100.00% # Request fanout histogram
system.tol2bus.snoop_fanout::21                     0      0.00%    100.00% # Request fanout histogram
system.tol2bus.snoop_fanout::22                     0      0.00%    100.00% # Request fanout histogram
system.tol2bus.snoop_fanout::23                     0      0.00%    100.00% # Request fanout histogram
system.tol2bus.snoop_fanout::24                     0      0.00%    100.00% # Request fanout histogram
system.tol2bus.snoop_fanout::overflows              0      0.00%    100.00% # Request fanout histogram
system.tol2bus.snoop_fanout::min_value              0                       # Request fanout histogram
system.tol2bus.snoop_fanout::max_value              1                       # Request fanout histogram
system.tol2bus.snoop_fanout::total             427260                       # Request fanout histogram
system.tol2bus.reqLayer0.occupancy          532726500                       # Layer occupancy (ticks)
system.tol2bus.reqLayer0.utilization              3.5                       # Layer utilization (%)
system.tol2bus.respLayer0.occupancy           1261999                       # Layer occupancy (ticks)
system.tol2bus.respLayer0.utilization             0.0                       # Layer utilization (%)
system.tol2bus.respLayer1.occupancy         456372000                       # Layer occupancy (ticks)
system.tol2bus.respLayer1.utilization             3.0                       # Layer utilization (%)

---------- End Simulation Statistics   ----------
