
---------- Begin Simulation Statistics ----------
sim_seconds                                  0.015267                       # Number of seconds simulated
sim_ticks                                 15267344125                       # Number of ticks simulated
final_tick                               244277506000                       # Number of ticks from beginning of simulation (restored from checkpoints and never reset)
sim_freq                                 1000000000000                       # Frequency of simulated ticks
host_inst_rate                                1463517                       # Simulator instruction rate (inst/s)
host_op_rate                                  2758217                       # Simulator op (including micro ops) rate (op/s)
host_tick_rate                               41308090                       # Simulator tick rate (ticks/s)
host_mem_usage                                3396084                       # Number of bytes of host memory used
host_seconds                                   369.60                       # Real time elapsed on the host
sim_insts                                   540911529                       # Number of instructions simulated
sim_ops                                    1019428487                       # Number of ops (including micro ops) simulated
system.voltage_domain.voltage                       1                       # Voltage in Volts
system.clk_domain.clock                          1000                       # Clock period in ticks
system.mem_ctrls.pwrStateResidencyTicks::UNDEFINED  15267344125                       # Cumulative time (in ticks) in various power states
system.mem_ctrls.bytes_read::cpu0.inst            128                       # Number of bytes read from this memory
system.mem_ctrls.bytes_read::cpu0.data         215296                       # Number of bytes read from this memory
system.mem_ctrls.bytes_read::total             215424                       # Number of bytes read from this memory
system.mem_ctrls.bytes_inst_read::cpu0.inst          128                       # Number of instructions bytes read from this memory
system.mem_ctrls.bytes_inst_read::total           128                       # Number of instructions bytes read from this memory
system.mem_ctrls.num_reads::cpu0.inst               2                       # Number of read requests responded to by this memory
system.mem_ctrls.num_reads::cpu0.data            3364                       # Number of read requests responded to by this memory
system.mem_ctrls.num_reads::total                3366                       # Number of read requests responded to by this memory
system.mem_ctrls.bw_read::cpu0.inst              8384                       # Total read bandwidth from this memory (bytes/s)
system.mem_ctrls.bw_read::cpu0.data          14101732                       # Total read bandwidth from this memory (bytes/s)
system.mem_ctrls.bw_read::total              14110116                       # Total read bandwidth from this memory (bytes/s)
system.mem_ctrls.bw_inst_read::cpu0.inst         8384                       # Instruction read bandwidth from this memory (bytes/s)
system.mem_ctrls.bw_inst_read::total             8384                       # Instruction read bandwidth from this memory (bytes/s)
system.mem_ctrls.bw_total::cpu0.inst             8384                       # Total bandwidth to/from this memory (bytes/s)
system.mem_ctrls.bw_total::cpu0.data         14101732                       # Total bandwidth to/from this memory (bytes/s)
system.mem_ctrls.bw_total::total             14110116                       # Total bandwidth to/from this memory (bytes/s)
system.mem_ctrls.readReqs                        3366                       # Number of read requests accepted
system.mem_ctrls.writeReqs                          0                       # Number of write requests accepted
system.mem_ctrls.readBursts                      3366                       # Number of DRAM read bursts, including those serviced by the write queue
system.mem_ctrls.writeBursts                        0                       # Number of DRAM write bursts, including those merged in the write queue
system.mem_ctrls.bytesReadDRAM                 215424                       # Total number of bytes read from DRAM
system.mem_ctrls.bytesReadWrQ                       0                       # Total number of bytes read from write queue
system.mem_ctrls.bytesWritten                       0                       # Total number of bytes written to DRAM
system.mem_ctrls.bytesReadSys                  215424                       # Total read bytes from the system interface side
system.mem_ctrls.bytesWrittenSys                    0                       # Total written bytes from the system interface side
system.mem_ctrls.servicedByWrQ                      0                       # Number of DRAM read bursts serviced by the write queue
system.mem_ctrls.mergedWrBursts                     0                       # Number of DRAM write bursts merged with an existing one
system.mem_ctrls.neitherReadNorWriteReqs            0                       # Number of requests that are neither read nor write
system.mem_ctrls.perBankRdBursts::0               257                       # Per bank write bursts
system.mem_ctrls.perBankRdBursts::1               362                       # Per bank write bursts
system.mem_ctrls.perBankRdBursts::2               379                       # Per bank write bursts
system.mem_ctrls.perBankRdBursts::3               236                       # Per bank write bursts
system.mem_ctrls.perBankRdBursts::4               128                       # Per bank write bursts
system.mem_ctrls.perBankRdBursts::5               128                       # Per bank write bursts
system.mem_ctrls.perBankRdBursts::6               128                       # Per bank write bursts
system.mem_ctrls.perBankRdBursts::7               128                       # Per bank write bursts
system.mem_ctrls.perBankRdBursts::8               128                       # Per bank write bursts
system.mem_ctrls.perBankRdBursts::9               128                       # Per bank write bursts
system.mem_ctrls.perBankRdBursts::10              249                       # Per bank write bursts
system.mem_ctrls.perBankRdBursts::11              256                       # Per bank write bursts
system.mem_ctrls.perBankRdBursts::12              256                       # Per bank write bursts
system.mem_ctrls.perBankRdBursts::13              195                       # Per bank write bursts
system.mem_ctrls.perBankRdBursts::14              152                       # Per bank write bursts
system.mem_ctrls.perBankRdBursts::15              256                       # Per bank write bursts
system.mem_ctrls.perBankWrBursts::0                 0                       # Per bank write bursts
system.mem_ctrls.perBankWrBursts::1                 0                       # Per bank write bursts
system.mem_ctrls.perBankWrBursts::2                 0                       # Per bank write bursts
system.mem_ctrls.perBankWrBursts::3                 0                       # Per bank write bursts
system.mem_ctrls.perBankWrBursts::4                 0                       # Per bank write bursts
system.mem_ctrls.perBankWrBursts::5                 0                       # Per bank write bursts
system.mem_ctrls.perBankWrBursts::6                 0                       # Per bank write bursts
system.mem_ctrls.perBankWrBursts::7                 0                       # Per bank write bursts
system.mem_ctrls.perBankWrBursts::8                 0                       # Per bank write bursts
system.mem_ctrls.perBankWrBursts::9                 0                       # Per bank write bursts
system.mem_ctrls.perBankWrBursts::10                0                       # Per bank write bursts
system.mem_ctrls.perBankWrBursts::11                0                       # Per bank write bursts
system.mem_ctrls.perBankWrBursts::12                0                       # Per bank write bursts
system.mem_ctrls.perBankWrBursts::13                0                       # Per bank write bursts
system.mem_ctrls.perBankWrBursts::14                0                       # Per bank write bursts
system.mem_ctrls.perBankWrBursts::15                0                       # Per bank write bursts
system.mem_ctrls.numRdRetry                         0                       # Number of times read queue was full causing retry
system.mem_ctrls.numWrRetry                         0                       # Number of times write queue was full causing retry
system.mem_ctrls.totGap                   15269501500                       # Total gap between requests
system.mem_ctrls.readPktSize::0                     0                       # Read request sizes (log2)
system.mem_ctrls.readPktSize::1                     0                       # Read request sizes (log2)
system.mem_ctrls.readPktSize::2                     0                       # Read request sizes (log2)
system.mem_ctrls.readPktSize::3                     0                       # Read request sizes (log2)
system.mem_ctrls.readPktSize::4                     0                       # Read request sizes (log2)
system.mem_ctrls.readPktSize::5                     0                       # Read request sizes (log2)
system.mem_ctrls.readPktSize::6                  3366                       # Read request sizes (log2)
system.mem_ctrls.writePktSize::0                    0                       # Write request sizes (log2)
system.mem_ctrls.writePktSize::1                    0                       # Write request sizes (log2)
system.mem_ctrls.writePktSize::2                    0                       # Write request sizes (log2)
system.mem_ctrls.writePktSize::3                    0                       # Write request sizes (log2)
system.mem_ctrls.writePktSize::4                    0                       # Write request sizes (log2)
system.mem_ctrls.writePktSize::5                    0                       # Write request sizes (log2)
system.mem_ctrls.writePktSize::6                    0                       # Write request sizes (log2)
system.mem_ctrls.rdQLenPdf::0                    3366                       # What read queue length does an incoming req see
system.mem_ctrls.rdQLenPdf::1                       0                       # What read queue length does an incoming req see
system.mem_ctrls.rdQLenPdf::2                       0                       # What read queue length does an incoming req see
system.mem_ctrls.rdQLenPdf::3                       0                       # What read queue length does an incoming req see
system.mem_ctrls.rdQLenPdf::4                       0                       # What read queue length does an incoming req see
system.mem_ctrls.rdQLenPdf::5                       0                       # What read queue length does an incoming req see
system.mem_ctrls.rdQLenPdf::6                       0                       # What read queue length does an incoming req see
system.mem_ctrls.rdQLenPdf::7                       0                       # What read queue length does an incoming req see
system.mem_ctrls.rdQLenPdf::8                       0                       # What read queue length does an incoming req see
system.mem_ctrls.rdQLenPdf::9                       0                       # What read queue length does an incoming req see
system.mem_ctrls.rdQLenPdf::10                      0                       # What read queue length does an incoming req see
system.mem_ctrls.rdQLenPdf::11                      0                       # What read queue length does an incoming req see
system.mem_ctrls.rdQLenPdf::12                      0                       # What read queue length does an incoming req see
system.mem_ctrls.rdQLenPdf::13                      0                       # What read queue length does an incoming req see
system.mem_ctrls.rdQLenPdf::14                      0                       # What read queue length does an incoming req see
system.mem_ctrls.rdQLenPdf::15                      0                       # What read queue length does an incoming req see
system.mem_ctrls.rdQLenPdf::16                      0                       # What read queue length does an incoming req see
system.mem_ctrls.rdQLenPdf::17                      0                       # What read queue length does an incoming req see
system.mem_ctrls.rdQLenPdf::18                      0                       # What read queue length does an incoming req see
system.mem_ctrls.rdQLenPdf::19                      0                       # What read queue length does an incoming req see
system.mem_ctrls.rdQLenPdf::20                      0                       # What read queue length does an incoming req see
system.mem_ctrls.rdQLenPdf::21                      0                       # What read queue length does an incoming req see
system.mem_ctrls.rdQLenPdf::22                      0                       # What read queue length does an incoming req see
system.mem_ctrls.rdQLenPdf::23                      0                       # What read queue length does an incoming req see
system.mem_ctrls.rdQLenPdf::24                      0                       # What read queue length does an incoming req see
system.mem_ctrls.rdQLenPdf::25                      0                       # What read queue length does an incoming req see
system.mem_ctrls.rdQLenPdf::26                      0                       # What read queue length does an incoming req see
system.mem_ctrls.rdQLenPdf::27                      0                       # What read queue length does an incoming req see
system.mem_ctrls.rdQLenPdf::28                      0                       # What read queue length does an incoming req see
system.mem_ctrls.rdQLenPdf::29                      0                       # What read queue length does an incoming req see
system.mem_ctrls.rdQLenPdf::30                      0                       # What read queue length does an incoming req see
system.mem_ctrls.rdQLenPdf::31                      0                       # What read queue length does an incoming req see
system.mem_ctrls.wrQLenPdf::0                       0                       # What write queue length does an incoming req see
system.mem_ctrls.wrQLenPdf::1                       0                       # What write queue length does an incoming req see
system.mem_ctrls.wrQLenPdf::2                       0                       # What write queue length does an incoming req see
system.mem_ctrls.wrQLenPdf::3                       0                       # What write queue length does an incoming req see
system.mem_ctrls.wrQLenPdf::4                       0                       # What write queue length does an incoming req see
system.mem_ctrls.wrQLenPdf::5                       0                       # What write queue length does an incoming req see
system.mem_ctrls.wrQLenPdf::6                       0                       # What write queue length does an incoming req see
system.mem_ctrls.wrQLenPdf::7                       0                       # What write queue length does an incoming req see
system.mem_ctrls.wrQLenPdf::8                       0                       # What write queue length does an incoming req see
system.mem_ctrls.wrQLenPdf::9                       0                       # What write queue length does an incoming req see
system.mem_ctrls.wrQLenPdf::10                      0                       # What write queue length does an incoming req see
system.mem_ctrls.wrQLenPdf::11                      0                       # What write queue length does an incoming req see
system.mem_ctrls.wrQLenPdf::12                      0                       # What write queue length does an incoming req see
system.mem_ctrls.wrQLenPdf::13                      0                       # What write queue length does an incoming req see
system.mem_ctrls.wrQLenPdf::14                      0                       # What write queue length does an incoming req see
system.mem_ctrls.wrQLenPdf::15                      0                       # What write queue length does an incoming req see
system.mem_ctrls.wrQLenPdf::16                      0                       # What write queue length does an incoming req see
system.mem_ctrls.wrQLenPdf::17                      0                       # What write queue length does an incoming req see
system.mem_ctrls.wrQLenPdf::18                      0                       # What write queue length does an incoming req see
system.mem_ctrls.wrQLenPdf::19                      0                       # What write queue length does an incoming req see
system.mem_ctrls.wrQLenPdf::20                      0                       # What write queue length does an incoming req see
system.mem_ctrls.wrQLenPdf::21                      0                       # What write queue length does an incoming req see
system.mem_ctrls.wrQLenPdf::22                      0                       # What write queue length does an incoming req see
system.mem_ctrls.wrQLenPdf::23                      0                       # What write queue length does an incoming req see
system.mem_ctrls.wrQLenPdf::24                      0                       # What write queue length does an incoming req see
system.mem_ctrls.wrQLenPdf::25                      0                       # What write queue length does an incoming req see
system.mem_ctrls.wrQLenPdf::26                      0                       # What write queue length does an incoming req see
system.mem_ctrls.wrQLenPdf::27                      0                       # What write queue length does an incoming req see
system.mem_ctrls.wrQLenPdf::28                      0                       # What write queue length does an incoming req see
system.mem_ctrls.wrQLenPdf::29                      0                       # What write queue length does an incoming req see
system.mem_ctrls.wrQLenPdf::30                      0                       # What write queue length does an incoming req see
system.mem_ctrls.wrQLenPdf::31                      0                       # What write queue length does an incoming req see
system.mem_ctrls.wrQLenPdf::32                      0                       # What write queue length does an incoming req see
system.mem_ctrls.wrQLenPdf::33                      0                       # What write queue length does an incoming req see
system.mem_ctrls.wrQLenPdf::34                      0                       # What write queue length does an incoming req see
system.mem_ctrls.wrQLenPdf::35                      0                       # What write queue length does an incoming req see
system.mem_ctrls.wrQLenPdf::36                      0                       # What write queue length does an incoming req see
system.mem_ctrls.wrQLenPdf::37                      0                       # What write queue length does an incoming req see
system.mem_ctrls.wrQLenPdf::38                      0                       # What write queue length does an incoming req see
system.mem_ctrls.wrQLenPdf::39                      0                       # What write queue length does an incoming req see
system.mem_ctrls.wrQLenPdf::40                      0                       # What write queue length does an incoming req see
system.mem_ctrls.wrQLenPdf::41                      0                       # What write queue length does an incoming req see
system.mem_ctrls.wrQLenPdf::42                      0                       # What write queue length does an incoming req see
system.mem_ctrls.wrQLenPdf::43                      0                       # What write queue length does an incoming req see
system.mem_ctrls.wrQLenPdf::44                      0                       # What write queue length does an incoming req see
system.mem_ctrls.wrQLenPdf::45                      0                       # What write queue length does an incoming req see
system.mem_ctrls.wrQLenPdf::46                      0                       # What write queue length does an incoming req see
system.mem_ctrls.wrQLenPdf::47                      0                       # What write queue length does an incoming req see
system.mem_ctrls.wrQLenPdf::48                      0                       # What write queue length does an incoming req see
system.mem_ctrls.wrQLenPdf::49                      0                       # What write queue length does an incoming req see
system.mem_ctrls.wrQLenPdf::50                      0                       # What write queue length does an incoming req see
system.mem_ctrls.wrQLenPdf::51                      0                       # What write queue length does an incoming req see
system.mem_ctrls.wrQLenPdf::52                      0                       # What write queue length does an incoming req see
system.mem_ctrls.wrQLenPdf::53                      0                       # What write queue length does an incoming req see
system.mem_ctrls.wrQLenPdf::54                      0                       # What write queue length does an incoming req see
system.mem_ctrls.wrQLenPdf::55                      0                       # What write queue length does an incoming req see
system.mem_ctrls.wrQLenPdf::56                      0                       # What write queue length does an incoming req see
system.mem_ctrls.wrQLenPdf::57                      0                       # What write queue length does an incoming req see
system.mem_ctrls.wrQLenPdf::58                      0                       # What write queue length does an incoming req see
system.mem_ctrls.wrQLenPdf::59                      0                       # What write queue length does an incoming req see
system.mem_ctrls.wrQLenPdf::60                      0                       # What write queue length does an incoming req see
system.mem_ctrls.wrQLenPdf::61                      0                       # What write queue length does an incoming req see
system.mem_ctrls.wrQLenPdf::62                      0                       # What write queue length does an incoming req see
system.mem_ctrls.wrQLenPdf::63                      0                       # What write queue length does an incoming req see
system.mem_ctrls.bytesPerActivate::samples         3302                       # Bytes accessed per row activation
system.mem_ctrls.bytesPerActivate::mean     65.221078                       # Bytes accessed per row activation
system.mem_ctrls.bytesPerActivate::gmean    64.846358                       # Bytes accessed per row activation
system.mem_ctrls.bytesPerActivate::stdev     8.897351                       # Bytes accessed per row activation
system.mem_ctrls.bytesPerActivate::64-79         3240     98.12%     98.12% # Bytes accessed per row activation
system.mem_ctrls.bytesPerActivate::128-143           61      1.85%     99.97% # Bytes accessed per row activation
system.mem_ctrls.bytesPerActivate::192-207            1      0.03%    100.00% # Bytes accessed per row activation
system.mem_ctrls.bytesPerActivate::total         3302                       # Bytes accessed per row activation
system.mem_ctrls.totQLat                    413442500                       # Total ticks spent queuing
system.mem_ctrls.totMemAccLat               476555000                       # Total ticks spent from burst creation until serviced by the DRAM
system.mem_ctrls.totBusLat                   16830000                       # Total ticks spent in databus transfers
system.mem_ctrls.avgQLat                    122829.03                       # Average queueing delay per DRAM burst
system.mem_ctrls.avgBusLat                    5000.00                       # Average bus latency per DRAM burst
system.mem_ctrls.avgMemAccLat               141579.03                       # Average memory access latency per DRAM burst
system.mem_ctrls.avgRdBW                        14.11                       # Average DRAM read bandwidth in MiByte/s
system.mem_ctrls.avgWrBW                         0.00                       # Average achieved write bandwidth in MiByte/s
system.mem_ctrls.avgRdBWSys                     14.11                       # Average system read bandwidth in MiByte/s
system.mem_ctrls.avgWrBWSys                      0.00                       # Average system write bandwidth in MiByte/s
system.mem_ctrls.peakBW                      12800.00                       # Theoretical peak bandwidth in MiByte/s
system.mem_ctrls.busUtil                         0.11                       # Data bus utilization in percentage
system.mem_ctrls.busUtilRead                     0.11                       # Data bus utilization in percentage for reads
system.mem_ctrls.busUtilWrite                    0.00                       # Data bus utilization in percentage for writes
system.mem_ctrls.avgRdQLen                       1.00                       # Average read queue length when enqueuing
system.mem_ctrls.avgWrQLen                       0.00                       # Average write queue length when enqueuing
system.mem_ctrls.readRowHits                       63                       # Number of row buffer hits during reads
system.mem_ctrls.writeRowHits                       0                       # Number of row buffer hits during writes
system.mem_ctrls.readRowHitRate                  1.87                       # Row buffer hit rate for reads
system.mem_ctrls.writeRowHitRate                  nan                       # Row buffer hit rate for writes
system.mem_ctrls.avgGap                    4536393.79                       # Average gap between requests
system.mem_ctrls.pageHitRate                     1.87                       # Row buffer hit rate, read and write combined
system.mem_ctrls_0.actEnergy                 12252240                       # Energy for activate commands per rank (pJ)
system.mem_ctrls_0.preEnergy                  6508425                       # Energy for precharge commands per rank (pJ)
system.mem_ctrls_0.readEnergy                12466440                       # Energy for read commands per rank (pJ)
system.mem_ctrls_0.writeEnergy                      0                       # Energy for write commands per rank (pJ)
system.mem_ctrls_0.refreshEnergy         1240343520.000000                       # Energy for refresh commands per rank (pJ)
system.mem_ctrls_0.actBackEnergy            257029530                       # Energy for active background per rank (pJ)
system.mem_ctrls_0.preBackEnergy             49042080                       # Energy for precharge background per rank (pJ)
system.mem_ctrls_0.actPowerDownEnergy      2964117990                       # Energy for active power-down per rank (pJ)
system.mem_ctrls_0.prePowerDownEnergy      2504538240                       # Energy for precharge power-down per rank (pJ)
system.mem_ctrls_0.selfRefreshEnergy        524700000                       # Energy for self refresh per rank (pJ)
system.mem_ctrls_0.totalEnergy             7572505245                       # Total energy per rank (pJ)
system.mem_ctrls_0.averagePower            495.993618                       # Core power per rank (mW)
system.mem_ctrls_0.totalIdleTime          14571511125                       # Total Idle time Per DRAM Rank
system.mem_ctrls_0.memoryStateTime::IDLE     81456000                       # Time in different power states
system.mem_ctrls_0.memoryStateTime::REF     526546000                       # Time in different power states
system.mem_ctrls_0.memoryStateTime::SREF   1550119375                       # Time in different power states
system.mem_ctrls_0.memoryStateTime::PRE_PDN   6522229750                       # Time in different power states
system.mem_ctrls_0.memoryStateTime::ACT      86781000                       # Time in different power states
system.mem_ctrls_0.memoryStateTime::ACT_PDN   6500212000                       # Time in different power states
system.mem_ctrls_1.actEnergy                 11331180                       # Energy for activate commands per rank (pJ)
system.mem_ctrls_1.preEnergy                  6022665                       # Energy for precharge commands per rank (pJ)
system.mem_ctrls_1.readEnergy                11566800                       # Energy for read commands per rank (pJ)
system.mem_ctrls_1.writeEnergy                      0                       # Energy for write commands per rank (pJ)
system.mem_ctrls_1.refreshEnergy         1364500800.000000                       # Energy for refresh commands per rank (pJ)
system.mem_ctrls_1.actBackEnergy            277528440                       # Energy for active background per rank (pJ)
system.mem_ctrls_1.preBackEnergy             57519840                       # Energy for precharge background per rank (pJ)
system.mem_ctrls_1.actPowerDownEnergy      3079698030                       # Energy for active power-down per rank (pJ)
system.mem_ctrls_1.prePowerDownEnergy      2751162720                       # Energy for precharge power-down per rank (pJ)
system.mem_ctrls_1.selfRefreshEnergy        340028760                       # Energy for self refresh per rank (pJ)
system.mem_ctrls_1.totalEnergy             7902354315                       # Total energy per rank (pJ)
system.mem_ctrls_1.averagePower            517.598493                       # Core power per rank (mW)
system.mem_ctrls_1.totalIdleTime          14497571875                       # Total Idle time Per DRAM Rank
system.mem_ctrls_1.memoryStateTime::IDLE    103488000                       # Time in different power states
system.mem_ctrls_1.memoryStateTime::REF     579654000                       # Time in different power states
system.mem_ctrls_1.memoryStateTime::SREF    584078000                       # Time in different power states
system.mem_ctrls_1.memoryStateTime::PRE_PDN   7164473250                       # Time in different power states
system.mem_ctrls_1.memoryStateTime::ACT      81884500                       # Time in different power states
system.mem_ctrls_1.memoryStateTime::ACT_PDN   6753766375                       # Time in different power states
system.pwrStateResidencyTicks::UNDEFINED  15267344125                       # Cumulative time (in ticks) in various power states
system.cpu0.branchPred.lookups               12684254                       # Number of BP lookups
system.cpu0.branchPred.condPredicted         12684254                       # Number of conditional branches predicted
system.cpu0.branchPred.condIncorrect           999111                       # Number of conditional branches incorrect
system.cpu0.branchPred.BTBLookups            10515102                       # Number of BTB lookups
system.cpu0.branchPred.BTBHits                      0                       # Number of BTB hits
system.cpu0.branchPred.BTBCorrect                   0                       # Number of correct BTB predictions (this stat may not work properly.
system.cpu0.branchPred.BTBHitPct             0.000000                       # BTB Hit Percentage
system.cpu0.branchPred.usedRAS                 940660                       # Number of times the RAS was used to get a target.
system.cpu0.branchPred.RASInCorrect            201622                       # Number of incorrect RAS predictions.
system.cpu0.branchPred.indirectLookups       10515102                       # Number of indirect predictor lookups.
system.cpu0.branchPred.indirectHits           3656379                       # Number of indirect target hits.
system.cpu0.branchPred.indirectMisses         6858723                       # Number of indirect misses.
system.cpu0.branchPredindirectMispredicted       697907                       # Number of mispredicted indirect branches.
system.cpu_voltage_domain.voltage                   1                       # Voltage in Volts
system.cpu_clk_domain.clock                       500                       # Clock period in ticks
system.cpu0.dtb.walker.pwrStateResidencyTicks::UNDEFINED  15267344125                       # Cumulative time (in ticks) in various power states
system.cpu0.dtb.rdAccesses                    9801276                       # TLB accesses on read requests
system.cpu0.dtb.wrAccesses                    7409563                       # TLB accesses on write requests
system.cpu0.dtb.rdMisses                       110019                       # TLB misses on read requests
system.cpu0.dtb.wrMisses                        38156                       # TLB misses on write requests
system.cpu0.apic_clk_domain.clock                8000                       # Clock period in ticks
system.cpu0.interrupts.pwrStateResidencyTicks::UNDEFINED  15267344125                       # Cumulative time (in ticks) in various power states
system.cpu0.itb.walker.pwrStateResidencyTicks::UNDEFINED  15267344125                       # Cumulative time (in ticks) in various power states
system.cpu0.itb.rdAccesses                          0                       # TLB accesses on read requests
system.cpu0.itb.wrAccesses                    8704071                       # TLB accesses on write requests
system.cpu0.itb.rdMisses                            0                       # TLB misses on read requests
system.cpu0.itb.wrMisses                        14246                       # TLB misses on write requests
system.cpu0.workload.numSyscalls                   23                       # Number of system calls
system.cpu0.pwrStateResidencyTicks::ON    15267344125                       # Cumulative time (in ticks) in various power states
system.cpu0.numCycles                        30534689                       # number of cpu cycles simulated
system.cpu0.numWorkItemsStarted                     0                       # number of work items this cpu started
system.cpu0.numWorkItemsCompleted                   0                       # number of work items this cpu completed
system.cpu0.fetch.icacheStallCycles          10348799                       # Number of cycles fetch is stalled on an Icache miss
system.cpu0.fetch.Insts                      57187585                       # Number of instructions fetch has processed
system.cpu0.fetch.Branches                   12684254                       # Number of branches that fetch encountered
system.cpu0.fetch.predictedBranches           4597039                       # Number of branches that fetch has predicted taken
system.cpu0.fetch.Cycles                     19066852                       # Number of cycles fetch has run and was not squashing or blocked
system.cpu0.fetch.SquashCycles                2013806                       # Number of cycles fetch has spent squashing
system.cpu0.fetch.MiscStallCycles                8180                       # Number of cycles fetch has spent waiting on interrupts, or bad addresses, or out of MSHRs
system.cpu0.fetch.PendingTrapStallCycles        59706                       # Number of stall cycles due to pending traps
system.cpu0.fetch.CacheLines                  8689825                       # Number of cache lines fetched
system.cpu0.fetch.IcacheSquashes               259986                       # Number of outstanding Icache misses that were squashed
system.cpu0.fetch.rateDist::samples          30490440                       # Number of instructions fetched each cycle (Total)
system.cpu0.fetch.rateDist::mean             3.589748                       # Number of instructions fetched each cycle (Total)
system.cpu0.fetch.rateDist::stdev            3.572421                       # Number of instructions fetched each cycle (Total)
system.cpu0.fetch.rateDist::underflows              0      0.00%      0.00% # Number of instructions fetched each cycle (Total)
system.cpu0.fetch.rateDist::0                12987925     42.60%     42.60% # Number of instructions fetched each cycle (Total)
system.cpu0.fetch.rateDist::1                  804195      2.64%     45.23% # Number of instructions fetched each cycle (Total)
system.cpu0.fetch.rateDist::2                 1240779      4.07%     49.30% # Number of instructions fetched each cycle (Total)
system.cpu0.fetch.rateDist::3                 1384986      4.54%     53.85% # Number of instructions fetched each cycle (Total)
system.cpu0.fetch.rateDist::4                 1084264      3.56%     57.40% # Number of instructions fetched each cycle (Total)
system.cpu0.fetch.rateDist::5                 1107924      3.63%     61.04% # Number of instructions fetched each cycle (Total)
system.cpu0.fetch.rateDist::6                 1010611      3.31%     64.35% # Number of instructions fetched each cycle (Total)
system.cpu0.fetch.rateDist::7                  886091      2.91%     67.26% # Number of instructions fetched each cycle (Total)
system.cpu0.fetch.rateDist::8                 9983665     32.74%    100.00% # Number of instructions fetched each cycle (Total)
system.cpu0.fetch.rateDist::overflows               0      0.00%    100.00% # Number of instructions fetched each cycle (Total)
system.cpu0.fetch.rateDist::min_value               0                       # Number of instructions fetched each cycle (Total)
system.cpu0.fetch.rateDist::max_value               8                       # Number of instructions fetched each cycle (Total)
system.cpu0.fetch.rateDist::total            30490440                       # Number of instructions fetched each cycle (Total)
system.cpu0.fetch.branchRate                 0.415405                       # Number of branch fetches per cycle
system.cpu0.fetch.rate                       1.872873                       # Number of inst fetches per cycle
system.cpu0.decode.IdleCycles                 9326997                       # Number of cycles decode is idle
system.cpu0.decode.BlockedCycles              4084693                       # Number of cycles decode is blocked
system.cpu0.decode.RunCycles                 15191578                       # Number of cycles decode is running
system.cpu0.decode.UnblockCycles               880269                       # Number of cycles decode is unblocking
system.cpu0.decode.SquashCycles               1006903                       # Number of cycles decode is squashing
system.cpu0.decode.DecodedInsts             104465677                       # Number of instructions handled by decode
system.cpu0.rename.SquashCycles               1006903                       # Number of cycles rename is squashing
system.cpu0.rename.IdleCycles                10026968                       # Number of cycles rename is idle
system.cpu0.rename.BlockCycles                2933475                       # Number of cycles rename is blocking
system.cpu0.rename.serializeStallCycles         11156                       # count of cycles rename stalled for serializing inst
system.cpu0.rename.RunCycles                 15311029                       # Number of cycles rename is running
system.cpu0.rename.UnblockCycles              1200909                       # Number of cycles rename is unblocking
system.cpu0.rename.RenamedInsts              99956770                       # Number of instructions processed by rename
system.cpu0.rename.ROBFullEvents                 1087                       # Number of times rename has blocked due to ROB full
system.cpu0.rename.IQFullEvents                 76020                       # Number of times rename has blocked due to IQ full
system.cpu0.rename.LQFullEvents                    78                       # Number of times rename has blocked due to LQ full
system.cpu0.rename.SQFullEvents               1062721                       # Number of times rename has blocked due to SQ full
system.cpu0.rename.RenamedOperands          106410358                       # Number of destination operands rename has renamed
system.cpu0.rename.RenameLookups            251805137                       # Number of register rename lookups that rename has made
system.cpu0.rename.int_rename_lookups       150216990                       # Number of integer rename lookups
system.cpu0.rename.fp_rename_lookups          3150107                       # Number of floating rename lookups
system.cpu0.rename.CommittedMaps             68823144                       # Number of HB maps that are committed
system.cpu0.rename.UndoneMaps                37587286                       # Number of HB maps that are undone due to squashing
system.cpu0.rename.serializingInsts               563                       # count of serializing insts renamed
system.cpu0.rename.tempSerializingInsts           714                       # count of temporary serializing insts renamed
system.cpu0.rename.skidInsts                  1030979                       # count of insts added to the skid buffer
system.cpu0.memDep0.insertedLoads            11538720                       # Number of loads inserted to the mem dependence unit.
system.cpu0.memDep0.insertedStores            8654814                       # Number of stores inserted to the mem dependence unit.
system.cpu0.memDep0.conflictingLoads           483586                       # Number of conflicting loads.
system.cpu0.memDep0.conflictingStores          194092                       # Number of conflicting stores.
system.cpu0.iq.iqInstsAdded                  90722561                       # Number of instructions added to the IQ (excludes non-spec)
system.cpu0.iq.iqNonSpecInstsAdded              51318                       # Number of non-speculative instructions added to the IQ
system.cpu0.iq.iqInstsIssued                 81636611                       # Number of instructions issued
system.cpu0.iq.iqSquashedInstsIssued           385245                       # Number of squashed instructions issued
system.cpu0.iq.iqSquashedInstsExamined       26342550                       # Number of squashed instructions iterated over during squash; mainly for profiling
system.cpu0.iq.iqSquashedOperandsExamined     38159731                       # Number of squashed operands that are examined and possibly removed from graph
system.cpu0.iq.iqSquashedNonSpecRemoved         51295                       # Number of squashed non-spec instructions that were removed
system.cpu0.iq.issued_per_cycle::samples     30490440                       # Number of insts issued each cycle
system.cpu0.iq.issued_per_cycle::mean        2.677449                       # Number of insts issued each cycle
system.cpu0.iq.issued_per_cycle::stdev       2.498185                       # Number of insts issued each cycle
system.cpu0.iq.issued_per_cycle::underflows            0      0.00%      0.00% # Number of insts issued each cycle
system.cpu0.iq.issued_per_cycle::0            9847320     32.30%     32.30% # Number of insts issued each cycle
system.cpu0.iq.issued_per_cycle::1            2881501      9.45%     41.75% # Number of insts issued each cycle
system.cpu0.iq.issued_per_cycle::2            3205519     10.51%     52.26% # Number of insts issued each cycle
system.cpu0.iq.issued_per_cycle::3            3165979     10.38%     62.64% # Number of insts issued each cycle
system.cpu0.iq.issued_per_cycle::4            3116647     10.22%     72.87% # Number of insts issued each cycle
system.cpu0.iq.issued_per_cycle::5            2722486      8.93%     81.79% # Number of insts issued each cycle
system.cpu0.iq.issued_per_cycle::6            3044639      9.99%     91.78% # Number of insts issued each cycle
system.cpu0.iq.issued_per_cycle::7            1551509      5.09%     96.87% # Number of insts issued each cycle
system.cpu0.iq.issued_per_cycle::8             954840      3.13%    100.00% # Number of insts issued each cycle
system.cpu0.iq.issued_per_cycle::overflows            0      0.00%    100.00% # Number of insts issued each cycle
system.cpu0.iq.issued_per_cycle::min_value            0                       # Number of insts issued each cycle
system.cpu0.iq.issued_per_cycle::max_value            8                       # Number of insts issued each cycle
system.cpu0.iq.issued_per_cycle::total       30490440                       # Number of insts issued each cycle
system.cpu0.iq.fu_full::No_OpClass                  0      0.00%      0.00% # attempts to use FU when none available
system.cpu0.iq.fu_full::IntAlu                 716850     71.56%     71.56% # attempts to use FU when none available
system.cpu0.iq.fu_full::IntMult                     0      0.00%     71.56% # attempts to use FU when none available
system.cpu0.iq.fu_full::IntDiv                      0      0.00%     71.56% # attempts to use FU when none available
system.cpu0.iq.fu_full::FloatAdd                14479      1.45%     73.00% # attempts to use FU when none available
system.cpu0.iq.fu_full::FloatCmp                    0      0.00%     73.00% # attempts to use FU when none available
system.cpu0.iq.fu_full::FloatCvt                    0      0.00%     73.00% # attempts to use FU when none available
system.cpu0.iq.fu_full::FloatMult                   0      0.00%     73.00% # attempts to use FU when none available
system.cpu0.iq.fu_full::FloatMultAcc                0      0.00%     73.00% # attempts to use FU when none available
system.cpu0.iq.fu_full::FloatDiv                    0      0.00%     73.00% # attempts to use FU when none available
system.cpu0.iq.fu_full::FloatMisc                   0      0.00%     73.00% # attempts to use FU when none available
system.cpu0.iq.fu_full::FloatSqrt                   0      0.00%     73.00% # attempts to use FU when none available
system.cpu0.iq.fu_full::SimdAdd                     0      0.00%     73.00% # attempts to use FU when none available
system.cpu0.iq.fu_full::SimdAddAcc                  0      0.00%     73.00% # attempts to use FU when none available
system.cpu0.iq.fu_full::SimdAlu                     0      0.00%     73.00% # attempts to use FU when none available
system.cpu0.iq.fu_full::SimdCmp                     0      0.00%     73.00% # attempts to use FU when none available
system.cpu0.iq.fu_full::SimdCvt                     0      0.00%     73.00% # attempts to use FU when none available
system.cpu0.iq.fu_full::SimdMisc                    0      0.00%     73.00% # attempts to use FU when none available
system.cpu0.iq.fu_full::SimdMult                    0      0.00%     73.00% # attempts to use FU when none available
system.cpu0.iq.fu_full::SimdMultAcc                 0      0.00%     73.00% # attempts to use FU when none available
system.cpu0.iq.fu_full::SimdShift                   0      0.00%     73.00% # attempts to use FU when none available
system.cpu0.iq.fu_full::SimdShiftAcc                0      0.00%     73.00% # attempts to use FU when none available
system.cpu0.iq.fu_full::SimdSqrt                    0      0.00%     73.00% # attempts to use FU when none available
system.cpu0.iq.fu_full::SimdFloatAdd                0      0.00%     73.00% # attempts to use FU when none available
system.cpu0.iq.fu_full::SimdFloatAlu                0      0.00%     73.00% # attempts to use FU when none available
system.cpu0.iq.fu_full::SimdFloatCmp                0      0.00%     73.00% # attempts to use FU when none available
system.cpu0.iq.fu_full::SimdFloatCvt                0      0.00%     73.00% # attempts to use FU when none available
system.cpu0.iq.fu_full::SimdFloatDiv                0      0.00%     73.00% # attempts to use FU when none available
system.cpu0.iq.fu_full::SimdFloatMisc               0      0.00%     73.00% # attempts to use FU when none available
system.cpu0.iq.fu_full::SimdFloatMult               0      0.00%     73.00% # attempts to use FU when none available
system.cpu0.iq.fu_full::SimdFloatMultAcc            0      0.00%     73.00% # attempts to use FU when none available
system.cpu0.iq.fu_full::SimdFloatSqrt               0      0.00%     73.00% # attempts to use FU when none available
system.cpu0.iq.fu_full::MemRead                 96200      9.60%     82.61% # attempts to use FU when none available
system.cpu0.iq.fu_full::MemWrite                89196      8.90%     91.51% # attempts to use FU when none available
system.cpu0.iq.fu_full::FloatMemRead              434      0.04%     91.55% # attempts to use FU when none available
system.cpu0.iq.fu_full::FloatMemWrite           84620      8.45%    100.00% # attempts to use FU when none available
system.cpu0.iq.fu_full::IprAccess                   0      0.00%    100.00% # attempts to use FU when none available
system.cpu0.iq.fu_full::InstPrefetch                0      0.00%    100.00% # attempts to use FU when none available
system.cpu0.iq.FU_type_0::No_OpClass           478620      0.59%      0.59% # Type of FU issued
system.cpu0.iq.FU_type_0::IntAlu             61827291     75.73%     76.32% # Type of FU issued
system.cpu0.iq.FU_type_0::IntMult               73167      0.09%     76.41% # Type of FU issued
system.cpu0.iq.FU_type_0::IntDiv                86162      0.11%     76.52% # Type of FU issued
system.cpu0.iq.FU_type_0::FloatAdd            1168530      1.43%     77.95% # Type of FU issued
system.cpu0.iq.FU_type_0::FloatCmp                  0      0.00%     77.95% # Type of FU issued
system.cpu0.iq.FU_type_0::FloatCvt                  0      0.00%     77.95% # Type of FU issued
system.cpu0.iq.FU_type_0::FloatMult                 0      0.00%     77.95% # Type of FU issued
system.cpu0.iq.FU_type_0::FloatMultAcc              0      0.00%     77.95% # Type of FU issued
system.cpu0.iq.FU_type_0::FloatDiv                  0      0.00%     77.95% # Type of FU issued
system.cpu0.iq.FU_type_0::FloatMisc                 0      0.00%     77.95% # Type of FU issued
system.cpu0.iq.FU_type_0::FloatSqrt                 0      0.00%     77.95% # Type of FU issued
system.cpu0.iq.FU_type_0::SimdAdd                   0      0.00%     77.95% # Type of FU issued
system.cpu0.iq.FU_type_0::SimdAddAcc                0      0.00%     77.95% # Type of FU issued
system.cpu0.iq.FU_type_0::SimdAlu                   0      0.00%     77.95% # Type of FU issued
system.cpu0.iq.FU_type_0::SimdCmp                   0      0.00%     77.95% # Type of FU issued
system.cpu0.iq.FU_type_0::SimdCvt                   0      0.00%     77.95% # Type of FU issued
system.cpu0.iq.FU_type_0::SimdMisc                  0      0.00%     77.95% # Type of FU issued
system.cpu0.iq.FU_type_0::SimdMult                  0      0.00%     77.95% # Type of FU issued
system.cpu0.iq.FU_type_0::SimdMultAcc               0      0.00%     77.95% # Type of FU issued
system.cpu0.iq.FU_type_0::SimdShift                 0      0.00%     77.95% # Type of FU issued
system.cpu0.iq.FU_type_0::SimdShiftAcc              0      0.00%     77.95% # Type of FU issued
system.cpu0.iq.FU_type_0::SimdSqrt                  0      0.00%     77.95% # Type of FU issued
system.cpu0.iq.FU_type_0::SimdFloatAdd              0      0.00%     77.95% # Type of FU issued
system.cpu0.iq.FU_type_0::SimdFloatAlu              0      0.00%     77.95% # Type of FU issued
system.cpu0.iq.FU_type_0::SimdFloatCmp              0      0.00%     77.95% # Type of FU issued
system.cpu0.iq.FU_type_0::SimdFloatCvt              0      0.00%     77.95% # Type of FU issued
system.cpu0.iq.FU_type_0::SimdFloatDiv              0      0.00%     77.95% # Type of FU issued
system.cpu0.iq.FU_type_0::SimdFloatMisc             0      0.00%     77.95% # Type of FU issued
system.cpu0.iq.FU_type_0::SimdFloatMult             0      0.00%     77.95% # Type of FU issued
system.cpu0.iq.FU_type_0::SimdFloatMultAcc            0      0.00%     77.95% # Type of FU issued
system.cpu0.iq.FU_type_0::SimdFloatSqrt             0      0.00%     77.95% # Type of FU issued
system.cpu0.iq.FU_type_0::MemRead             9900059     12.13%     90.07% # Type of FU issued
system.cpu0.iq.FU_type_0::MemWrite            7439677      9.11%     99.19% # Type of FU issued
system.cpu0.iq.FU_type_0::FloatMemRead         396704      0.49%     99.67% # Type of FU issued
system.cpu0.iq.FU_type_0::FloatMemWrite        266401      0.33%    100.00% # Type of FU issued
system.cpu0.iq.FU_type_0::IprAccess                 0      0.00%    100.00% # Type of FU issued
system.cpu0.iq.FU_type_0::InstPrefetch              0      0.00%    100.00% # Type of FU issued
system.cpu0.iq.FU_type_0::total              81636611                       # Type of FU issued
system.cpu0.iq.rate                          2.673569                       # Inst issue rate
system.cpu0.iq.fu_busy_cnt                    1001779                       # FU busy when requested
system.cpu0.iq.fu_busy_rate                  0.012271                       # FU busy rate (busy events/executed inst)
system.cpu0.iq.int_inst_queue_reads         191234655                       # Number of integer instruction queue reads
system.cpu0.iq.int_inst_queue_writes        114058740                       # Number of integer instruction queue writes
system.cpu0.iq.int_inst_queue_wakeup_accesses     76506589                       # Number of integer instruction queue wakeup accesses
system.cpu0.iq.fp_inst_queue_reads            3916034                       # Number of floating instruction queue reads
system.cpu0.iq.fp_inst_queue_writes           3058719                       # Number of floating instruction queue writes
system.cpu0.iq.fp_inst_queue_wakeup_accesses      1774068                       # Number of floating instruction queue wakeup accesses
system.cpu0.iq.vec_inst_queue_reads                 0                       # Number of vector instruction queue reads
system.cpu0.iq.vec_inst_queue_writes                0                       # Number of vector instruction queue writes
system.cpu0.iq.vec_inst_queue_wakeup_accesses            0                       # Number of vector instruction queue wakeup accesses
system.cpu0.iq.int_alu_accesses              80184849                       # Number of integer alu accesses
system.cpu0.iq.fp_alu_accesses                1974921                       # Number of floating point alu accesses
system.cpu0.iq.vec_alu_accesses                     0                       # Number of vector alu accesses
system.cpu0.iew.lsq.thread0.forwLoads         1247881                       # Number of loads that had data forwarded from stores
system.cpu0.iew.lsq.thread0.invAddrLoads            0                       # Number of loads ignored due to an invalid address
system.cpu0.iew.lsq.thread0.squashedLoads      3822348                       # Number of loads squashed
system.cpu0.iew.lsq.thread0.ignoredResponses         9439                       # Number of memory responses ignored because the instruction is squashed
system.cpu0.iew.lsq.thread0.memOrderViolation         2690                       # Number of memory ordering violations
system.cpu0.iew.lsq.thread0.squashedStores      2326681                       # Number of stores squashed
system.cpu0.iew.lsq.thread0.invAddrSwpfs            0                       # Number of software prefetches ignored due to an invalid address
system.cpu0.iew.lsq.thread0.blockedLoads            0                       # Number of blocked loads due to partial load-store forwarding
system.cpu0.iew.lsq.thread0.rescheduledLoads           97                       # Number of loads that were rescheduled
system.cpu0.iew.lsq.thread0.cacheBlocked            0                       # Number of times an access to memory failed due to the cache being blocked
system.cpu0.iew.iewIdleCycles                       0                       # Number of cycles IEW is idle
system.cpu0.iew.iewSquashCycles               1006903                       # Number of cycles IEW is squashing
system.cpu0.iew.iewBlockCycles                2979062                       # Number of cycles IEW is blocking
system.cpu0.iew.iewUnblockCycles                 7464                       # Number of cycles IEW is unblocking
system.cpu0.iew.iewDispatchedInsts           90773879                       # Number of instructions dispatched to IQ
system.cpu0.iew.iewDispSquashedInsts            26832                       # Number of squashed instructions skipped by dispatch
system.cpu0.iew.iewDispLoadInsts             11538720                       # Number of dispatched load instructions
system.cpu0.iew.iewDispStoreInsts             8654814                       # Number of dispatched store instructions
system.cpu0.iew.iewDispNonSpecInsts             18001                       # Number of dispatched non-speculative instructions
system.cpu0.iew.iewIQFullEvents                   632                       # Number of times the IQ has become full, causing a stall
system.cpu0.iew.iewLSQFullEvents                 6149                       # Number of times the LSQ has become full, causing a stall
system.cpu0.iew.memOrderViolationEvents          2690                       # Number of memory order violations
system.cpu0.iew.predictedTakenIncorrect        288275                       # Number of branches that were predicted taken incorrectly
system.cpu0.iew.predictedNotTakenIncorrect      1014400                       # Number of branches that were predicted not taken incorrectly
system.cpu0.iew.branchMispredicts             1302675                       # Number of branch mispredicts detected at execute
system.cpu0.iew.iewExecutedInsts             79326305                       # Number of executed instructions
system.cpu0.iew.iewExecLoadInsts              9794508                       # Number of load instructions executed
system.cpu0.iew.iewExecSquashedInsts          2310309                       # Number of squashed instructions skipped in execute
system.cpu0.iew.exec_swp                            0                       # number of swp insts executed
system.cpu0.iew.exec_nop                            0                       # number of nop insts executed
system.cpu0.iew.exec_refs                    17197914                       # number of memory reference insts executed
system.cpu0.iew.exec_branches                 8622692                       # Number of branches executed
system.cpu0.iew.exec_stores                   7403406                       # Number of stores executed
system.cpu0.iew.exec_rate                    2.597908                       # Inst execution rate
system.cpu0.iew.wb_sent                      78818458                       # cumulative count of insts sent to commit
system.cpu0.iew.wb_count                     78280657                       # cumulative count of insts written-back
system.cpu0.iew.wb_producers                 54688691                       # num instructions producing a value
system.cpu0.iew.wb_consumers                 85648380                       # num instructions consuming a value
system.cpu0.iew.wb_rate                      2.563663                       # insts written-back per cycle
system.cpu0.iew.wb_fanout                    0.638526                       # average fanout of values written-back
system.cpu0.commit.commitSquashedInsts       26342809                       # The number of squashed insts skipped by commit
system.cpu0.commit.commitNonSpecStalls             23                       # The number of times commit has been forced to stall to communicate backwards
system.cpu0.commit.branchMispredicts          1006212                       # The number of times a branch was mispredicted
system.cpu0.commit.committed_per_cycle::samples     26516758                       # Number of insts commited each cycle
system.cpu0.commit.committed_per_cycle::mean     2.429836                       # Number of insts commited each cycle
system.cpu0.commit.committed_per_cycle::stdev     2.725752                       # Number of insts commited each cycle
system.cpu0.commit.committed_per_cycle::underflows            0      0.00%      0.00% # Number of insts commited each cycle
system.cpu0.commit.committed_per_cycle::0      9600197     36.20%     36.20% # Number of insts commited each cycle
system.cpu0.commit.committed_per_cycle::1      3797484     14.32%     50.53% # Number of insts commited each cycle
system.cpu0.commit.committed_per_cycle::2      2662411     10.04%     60.57% # Number of insts commited each cycle
system.cpu0.commit.committed_per_cycle::3      3640876     13.73%     74.30% # Number of insts commited each cycle
system.cpu0.commit.committed_per_cycle::4      1141113      4.30%     78.60% # Number of insts commited each cycle
system.cpu0.commit.committed_per_cycle::5      1148564      4.33%     82.93% # Number of insts commited each cycle
system.cpu0.commit.committed_per_cycle::6       828836      3.13%     86.06% # Number of insts commited each cycle
system.cpu0.commit.committed_per_cycle::7       472055      1.78%     87.84% # Number of insts commited each cycle
system.cpu0.commit.committed_per_cycle::8      3225222     12.16%    100.00% # Number of insts commited each cycle
system.cpu0.commit.committed_per_cycle::overflows            0      0.00%    100.00% # Number of insts commited each cycle
system.cpu0.commit.committed_per_cycle::min_value            0                       # Number of insts commited each cycle
system.cpu0.commit.committed_per_cycle::max_value            8                       # Number of insts commited each cycle
system.cpu0.commit.committed_per_cycle::total     26516758                       # Number of insts commited each cycle
system.cpu0.commit.committedInsts            34016630                       # Number of instructions committed
system.cpu0.commit.committedOps              64431383                       # Number of ops (including micro ops) committed
system.cpu0.commit.swp_count                        0                       # Number of s/w prefetches committed
system.cpu0.commit.refs                      14044511                       # Number of memory references committed
system.cpu0.commit.loads                      7716376                       # Number of loads committed
system.cpu0.commit.membars                          0                       # Number of memory barriers committed
system.cpu0.commit.branches                   7488309                       # Number of branches committed
system.cpu0.commit.vec_insts                        0                       # Number of committed Vector instructions.
system.cpu0.commit.fp_insts                   1314885                       # Number of committed floating point instructions.
system.cpu0.commit.int_insts                 63443668                       # Number of committed integer instructions.
system.cpu0.commit.function_calls              466978                       # Number of function calls committed.
system.cpu0.commit.op_class_0::No_OpClass       261875      0.41%      0.41% # Class of committed instruction
system.cpu0.commit.op_class_0::IntAlu        49000437     76.05%     76.46% # Class of committed instruction
system.cpu0.commit.op_class_0::IntMult          54788      0.09%     76.54% # Class of committed instruction
system.cpu0.commit.op_class_0::IntDiv           76524      0.12%     76.66% # Class of committed instruction
system.cpu0.commit.op_class_0::FloatAdd        993248      1.54%     78.20% # Class of committed instruction
system.cpu0.commit.op_class_0::FloatCmp             0      0.00%     78.20% # Class of committed instruction
system.cpu0.commit.op_class_0::FloatCvt             0      0.00%     78.20% # Class of committed instruction
system.cpu0.commit.op_class_0::FloatMult            0      0.00%     78.20% # Class of committed instruction
system.cpu0.commit.op_class_0::FloatMultAcc            0      0.00%     78.20% # Class of committed instruction
system.cpu0.commit.op_class_0::FloatDiv             0      0.00%     78.20% # Class of committed instruction
system.cpu0.commit.op_class_0::FloatMisc            0      0.00%     78.20% # Class of committed instruction
system.cpu0.commit.op_class_0::FloatSqrt            0      0.00%     78.20% # Class of committed instruction
system.cpu0.commit.op_class_0::SimdAdd              0      0.00%     78.20% # Class of committed instruction
system.cpu0.commit.op_class_0::SimdAddAcc            0      0.00%     78.20% # Class of committed instruction
system.cpu0.commit.op_class_0::SimdAlu              0      0.00%     78.20% # Class of committed instruction
system.cpu0.commit.op_class_0::SimdCmp              0      0.00%     78.20% # Class of committed instruction
system.cpu0.commit.op_class_0::SimdCvt              0      0.00%     78.20% # Class of committed instruction
system.cpu0.commit.op_class_0::SimdMisc             0      0.00%     78.20% # Class of committed instruction
system.cpu0.commit.op_class_0::SimdMult             0      0.00%     78.20% # Class of committed instruction
system.cpu0.commit.op_class_0::SimdMultAcc            0      0.00%     78.20% # Class of committed instruction
system.cpu0.commit.op_class_0::SimdShift            0      0.00%     78.20% # Class of committed instruction
system.cpu0.commit.op_class_0::SimdShiftAcc            0      0.00%     78.20% # Class of committed instruction
system.cpu0.commit.op_class_0::SimdSqrt             0      0.00%     78.20% # Class of committed instruction
system.cpu0.commit.op_class_0::SimdFloatAdd            0      0.00%     78.20% # Class of committed instruction
system.cpu0.commit.op_class_0::SimdFloatAlu            0      0.00%     78.20% # Class of committed instruction
system.cpu0.commit.op_class_0::SimdFloatCmp            0      0.00%     78.20% # Class of committed instruction
system.cpu0.commit.op_class_0::SimdFloatCvt            0      0.00%     78.20% # Class of committed instruction
system.cpu0.commit.op_class_0::SimdFloatDiv            0      0.00%     78.20% # Class of committed instruction
system.cpu0.commit.op_class_0::SimdFloatMisc            0      0.00%     78.20% # Class of committed instruction
system.cpu0.commit.op_class_0::SimdFloatMult            0      0.00%     78.20% # Class of committed instruction
system.cpu0.commit.op_class_0::SimdFloatMultAcc            0      0.00%     78.20% # Class of committed instruction
system.cpu0.commit.op_class_0::SimdFloatSqrt            0      0.00%     78.20% # Class of committed instruction
system.cpu0.commit.op_class_0::MemRead        7438492     11.54%     89.75% # Class of committed instruction
system.cpu0.commit.op_class_0::MemWrite       6328135      9.82%     99.57% # Class of committed instruction
system.cpu0.commit.op_class_0::FloatMemRead       277884      0.43%    100.00% # Class of committed instruction
system.cpu0.commit.op_class_0::FloatMemWrite            0      0.00%    100.00% # Class of committed instruction
system.cpu0.commit.op_class_0::IprAccess            0      0.00%    100.00% # Class of committed instruction
system.cpu0.commit.op_class_0::InstPrefetch            0      0.00%    100.00% # Class of committed instruction
system.cpu0.commit.op_class_0::total         64431383                       # Class of committed instruction
system.cpu0.commit.bw_lim_events              3225222                       # number cycles where commit BW limit reached
system.cpu0.rob.rob_reads                   114065728                       # The number of ROB reads
system.cpu0.rob.rob_writes                  185598932                       # The number of ROB writes
system.cpu0.timesIdled                          13687                       # Number of times that the entire CPU went into an idle state and unscheduled itself
system.cpu0.idleCycles                          44249                       # Total number of cycles that the CPU has spent unscheduled due to idling
system.cpu0.committedInsts                   34016630                       # Number of Instructions Simulated
system.cpu0.committedOps                     64431383                       # Number of Ops (including micro ops) Simulated
system.cpu0.cpi                              0.897640                       # CPI: Cycles Per Instruction
system.cpu0.cpi_total                        0.897640                       # CPI: Total CPI of All Threads
system.cpu0.ipc                              1.114032                       # IPC: Instructions Per Cycle
system.cpu0.ipc_total                        1.114032                       # IPC: Total IPC of All Threads
system.cpu0.int_regfile_reads               115163526                       # number of integer regfile reads
system.cpu0.int_regfile_writes               61259990                       # number of integer regfile writes
system.cpu0.fp_regfile_reads                  2506785                       # number of floating regfile reads
system.cpu0.fp_regfile_writes                 1242426                       # number of floating regfile writes
system.cpu0.cc_regfile_reads                 40298156                       # number of cc regfile reads
system.cpu0.cc_regfile_writes                21042289                       # number of cc regfile writes
system.cpu0.misc_regfile_reads               34833457                       # number of misc regfile reads
system.cpu0.dcache.tags.pwrStateResidencyTicks::UNDEFINED  15267344125                       # Cumulative time (in ticks) in various power states
system.cpu0.dcache.tags.replacements            12339                       # number of replacements
system.cpu0.dcache.tags.tagsinuse                 512                       # Cycle average of tags in use
system.cpu0.dcache.tags.total_refs            2263284                       # Total number of references to valid blocks.
system.cpu0.dcache.tags.sampled_refs            12339                       # Sample count of references to valid blocks.
system.cpu0.dcache.tags.avg_refs           183.425237                       # Average number of references to valid blocks.
system.cpu0.dcache.tags.warmup_cycle                0                       # Cycle when the warmup percentage was hit.
system.cpu0.dcache.tags.occ_blocks::cpu0.data          512                       # Average occupied blocks per requestor
system.cpu0.dcache.tags.occ_percent::cpu0.data            1                       # Average percentage of cache occupancy
system.cpu0.dcache.tags.occ_percent::total            1                       # Average percentage of cache occupancy
system.cpu0.dcache.tags.occ_task_id_blocks::1024          512                       # Occupied blocks per task id
system.cpu0.dcache.tags.age_task_id_blocks_1024::0            7                       # Occupied blocks per task id
system.cpu0.dcache.tags.age_task_id_blocks_1024::1          108                       # Occupied blocks per task id
system.cpu0.dcache.tags.age_task_id_blocks_1024::2          212                       # Occupied blocks per task id
system.cpu0.dcache.tags.age_task_id_blocks_1024::3           95                       # Occupied blocks per task id
system.cpu0.dcache.tags.age_task_id_blocks_1024::4           90                       # Occupied blocks per task id
system.cpu0.dcache.tags.occ_task_id_percent::1024            1                       # Percentage of cache occupancy per task id
system.cpu0.dcache.tags.tag_accesses         59110803                       # Number of tag accesses
system.cpu0.dcache.tags.data_accesses        59110803                       # Number of data accesses
system.cpu0.dcache.pwrStateResidencyTicks::UNDEFINED  15267344125                       # Cumulative time (in ticks) in various power states
system.cpu0.dcache.ReadReq_hits::cpu0.data      8423392                       # number of ReadReq hits
system.cpu0.dcache.ReadReq_hits::total        8423392                       # number of ReadReq hits
system.cpu0.dcache.WriteReq_hits::cpu0.data      6327659                       # number of WriteReq hits
system.cpu0.dcache.WriteReq_hits::total       6327659                       # number of WriteReq hits
system.cpu0.dcache.demand_hits::cpu0.data     14751051                       # number of demand (read+write) hits
system.cpu0.dcache.demand_hits::total        14751051                       # number of demand (read+write) hits
system.cpu0.dcache.overall_hits::cpu0.data     14751051                       # number of overall hits
system.cpu0.dcache.overall_hits::total       14751051                       # number of overall hits
system.cpu0.dcache.ReadReq_misses::cpu0.data        19903                       # number of ReadReq misses
system.cpu0.dcache.ReadReq_misses::total        19903                       # number of ReadReq misses
system.cpu0.dcache.WriteReq_misses::cpu0.data         3662                       # number of WriteReq misses
system.cpu0.dcache.WriteReq_misses::total         3662                       # number of WriteReq misses
system.cpu0.dcache.demand_misses::cpu0.data        23565                       # number of demand (read+write) misses
system.cpu0.dcache.demand_misses::total         23565                       # number of demand (read+write) misses
system.cpu0.dcache.overall_misses::cpu0.data        23565                       # number of overall misses
system.cpu0.dcache.overall_misses::total        23565                       # number of overall misses
system.cpu0.dcache.ReadReq_miss_latency::cpu0.data    257555000                       # number of ReadReq miss cycles
system.cpu0.dcache.ReadReq_miss_latency::total    257555000                       # number of ReadReq miss cycles
system.cpu0.dcache.WriteReq_miss_latency::cpu0.data    660697500                       # number of WriteReq miss cycles
system.cpu0.dcache.WriteReq_miss_latency::total    660697500                       # number of WriteReq miss cycles
system.cpu0.dcache.demand_miss_latency::cpu0.data    918252500                       # number of demand (read+write) miss cycles
system.cpu0.dcache.demand_miss_latency::total    918252500                       # number of demand (read+write) miss cycles
system.cpu0.dcache.overall_miss_latency::cpu0.data    918252500                       # number of overall miss cycles
system.cpu0.dcache.overall_miss_latency::total    918252500                       # number of overall miss cycles
system.cpu0.dcache.ReadReq_accesses::cpu0.data      8443295                       # number of ReadReq accesses(hits+misses)
system.cpu0.dcache.ReadReq_accesses::total      8443295                       # number of ReadReq accesses(hits+misses)
system.cpu0.dcache.WriteReq_accesses::cpu0.data      6331321                       # number of WriteReq accesses(hits+misses)
system.cpu0.dcache.WriteReq_accesses::total      6331321                       # number of WriteReq accesses(hits+misses)
system.cpu0.dcache.demand_accesses::cpu0.data     14774616                       # number of demand (read+write) accesses
system.cpu0.dcache.demand_accesses::total     14774616                       # number of demand (read+write) accesses
system.cpu0.dcache.overall_accesses::cpu0.data     14774616                       # number of overall (read+write) accesses
system.cpu0.dcache.overall_accesses::total     14774616                       # number of overall (read+write) accesses
system.cpu0.dcache.ReadReq_miss_rate::cpu0.data     0.002357                       # miss rate for ReadReq accesses
system.cpu0.dcache.ReadReq_miss_rate::total     0.002357                       # miss rate for ReadReq accesses
system.cpu0.dcache.WriteReq_miss_rate::cpu0.data     0.000578                       # miss rate for WriteReq accesses
system.cpu0.dcache.WriteReq_miss_rate::total     0.000578                       # miss rate for WriteReq accesses
system.cpu0.dcache.demand_miss_rate::cpu0.data     0.001595                       # miss rate for demand accesses
system.cpu0.dcache.demand_miss_rate::total     0.001595                       # miss rate for demand accesses
system.cpu0.dcache.overall_miss_rate::cpu0.data     0.001595                       # miss rate for overall accesses
system.cpu0.dcache.overall_miss_rate::total     0.001595                       # miss rate for overall accesses
system.cpu0.dcache.ReadReq_avg_miss_latency::cpu0.data 12940.511481                       # average ReadReq miss latency
system.cpu0.dcache.ReadReq_avg_miss_latency::total 12940.511481                       # average ReadReq miss latency
system.cpu0.dcache.WriteReq_avg_miss_latency::cpu0.data 180419.852540                       # average WriteReq miss latency
system.cpu0.dcache.WriteReq_avg_miss_latency::total 180419.852540                       # average WriteReq miss latency
system.cpu0.dcache.demand_avg_miss_latency::cpu0.data 38966.793974                       # average overall miss latency
system.cpu0.dcache.demand_avg_miss_latency::total 38966.793974                       # average overall miss latency
system.cpu0.dcache.overall_avg_miss_latency::cpu0.data 38966.793974                       # average overall miss latency
system.cpu0.dcache.overall_avg_miss_latency::total 38966.793974                       # average overall miss latency
system.cpu0.dcache.blocked_cycles::no_mshrs            0                       # number of cycles access was blocked
system.cpu0.dcache.blocked_cycles::no_targets            0                       # number of cycles access was blocked
system.cpu0.dcache.blocked::no_mshrs                0                       # number of cycles access was blocked
system.cpu0.dcache.blocked::no_targets              0                       # number of cycles access was blocked
system.cpu0.dcache.avg_blocked_cycles::no_mshrs          nan                       # average number of cycles each access was blocked
system.cpu0.dcache.avg_blocked_cycles::no_targets          nan                       # average number of cycles each access was blocked
system.cpu0.dcache.writebacks::writebacks         8967                       # number of writebacks
system.cpu0.dcache.writebacks::total             8967                       # number of writebacks
system.cpu0.dcache.ReadReq_mshr_hits::cpu0.data        11202                       # number of ReadReq MSHR hits
system.cpu0.dcache.ReadReq_mshr_hits::total        11202                       # number of ReadReq MSHR hits
system.cpu0.dcache.WriteReq_mshr_hits::cpu0.data           20                       # number of WriteReq MSHR hits
system.cpu0.dcache.WriteReq_mshr_hits::total           20                       # number of WriteReq MSHR hits
system.cpu0.dcache.demand_mshr_hits::cpu0.data        11222                       # number of demand (read+write) MSHR hits
system.cpu0.dcache.demand_mshr_hits::total        11222                       # number of demand (read+write) MSHR hits
system.cpu0.dcache.overall_mshr_hits::cpu0.data        11222                       # number of overall MSHR hits
system.cpu0.dcache.overall_mshr_hits::total        11222                       # number of overall MSHR hits
system.cpu0.dcache.ReadReq_mshr_misses::cpu0.data         8701                       # number of ReadReq MSHR misses
system.cpu0.dcache.ReadReq_mshr_misses::total         8701                       # number of ReadReq MSHR misses
system.cpu0.dcache.WriteReq_mshr_misses::cpu0.data         3642                       # number of WriteReq MSHR misses
system.cpu0.dcache.WriteReq_mshr_misses::total         3642                       # number of WriteReq MSHR misses
system.cpu0.dcache.demand_mshr_misses::cpu0.data        12343                       # number of demand (read+write) MSHR misses
system.cpu0.dcache.demand_mshr_misses::total        12343                       # number of demand (read+write) MSHR misses
system.cpu0.dcache.overall_mshr_misses::cpu0.data        12343                       # number of overall MSHR misses
system.cpu0.dcache.overall_mshr_misses::total        12343                       # number of overall MSHR misses
system.cpu0.dcache.ReadReq_mshr_miss_latency::cpu0.data    107344500                       # number of ReadReq MSHR miss cycles
system.cpu0.dcache.ReadReq_mshr_miss_latency::total    107344500                       # number of ReadReq MSHR miss cycles
[...]
system.l2.demand_miss_rate::cpu0.inst        0.000031                       # miss rate for demand accesses
system.l2.demand_miss_rate::cpu0.data        0.272631                       # miss rate for demand accesses
system.l2.demand_miss_rate::total            0.043237                       # miss rate for demand accesses
system.l2.overall_miss_rate::cpu0.inst       0.000031                       # miss rate for overall accesses
system.l2.overall_miss_rate::cpu0.data       0.272631                       # miss rate for overall accesses
system.l2.overall_miss_rate::total           0.043237                       # miss rate for overall accesses
system.l2.ReadExReq_avg_miss_latency::cpu0.data 193498.502546                       # average ReadExReq miss latency
system.l2.ReadExReq_avg_miss_latency::total 193498.502546                       # average ReadExReq miss latency
system.l2.ReadCleanReq_avg_miss_latency::cpu0.inst        96750                       # average ReadCleanReq miss latency
system.l2.ReadCleanReq_avg_miss_latency::total        96750                       # average ReadCleanReq miss latency
system.l2.ReadSharedReq_avg_miss_latency::cpu0.data       110600                       # average ReadSharedReq miss latency
system.l2.ReadSharedReq_avg_miss_latency::total       110600                       # average ReadSharedReq miss latency
system.l2.demand_avg_miss_latency::cpu0.inst        96750                       # average overall miss latency
system.l2.demand_avg_miss_latency::cpu0.data 192882.431629                       # average overall miss latency
system.l2.demand_avg_miss_latency::total 192825.311943                       # average overall miss latency
system.l2.overall_avg_miss_latency::cpu0.inst        96750                       # average overall miss latency
system.l2.overall_avg_miss_latency::cpu0.data 192882.431629                       # average overall miss latency
system.l2.overall_avg_miss_latency::total 192825.311943                       # average overall miss latency
system.l2.blocked_cycles::no_mshrs                  0                       # number of cycles access was blocked
system.l2.blocked_cycles::no_targets                0                       # number of cycles access was blocked
system.l2.blocked::no_mshrs                         0                       # number of cycles access was blocked
system.l2.blocked::no_targets                       0                       # number of cycles access was blocked
system.l2.avg_blocked_cycles::no_mshrs            nan                       # average number of cycles each access was blocked
system.l2.avg_blocked_cycles::no_targets          nan                       # average number of cycles each access was blocked
system.l2.ReadExReq_mshr_misses::cpu0.data         3339                       # number of ReadExReq MSHR misses
system.l2.ReadExReq_mshr_misses::total           3339                       # number of ReadExReq MSHR misses
system.l2.ReadCleanReq_mshr_misses::cpu0.inst            2                       # number of ReadCleanReq MSHR misses
system.l2.ReadCleanReq_mshr_misses::total            2                       # number of ReadCleanReq MSHR misses
system.l2.ReadSharedReq_mshr_misses::cpu0.data           25                       # number of ReadSharedReq MSHR misses
system.l2.ReadSharedReq_mshr_misses::total           25                       # number of ReadSharedReq MSHR misses
system.l2.demand_mshr_misses::cpu0.inst             2                       # number of demand (read+write) MSHR misses
system.l2.demand_mshr_misses::cpu0.data          3364                       # number of demand (read+write) MSHR misses
system.l2.demand_mshr_misses::total              3366                       # number of demand (read+write) MSHR misses
system.l2.overall_mshr_misses::cpu0.inst            2                       # number of overall MSHR misses
system.l2.overall_mshr_misses::cpu0.data         3364                       # number of overall MSHR misses
system.l2.overall_mshr_misses::total             3366                       # number of overall MSHR misses
system.l2.ReadExReq_mshr_miss_latency::cpu0.data    612701500                       # number of ReadExReq MSHR miss cycles
system.l2.ReadExReq_mshr_miss_latency::total    612701500                       # number of ReadExReq MSHR miss cycles
system.l2.ReadCleanReq_mshr_miss_latency::cpu0.inst       173500                       # number of ReadCleanReq MSHR miss cycles
system.l2.ReadCleanReq_mshr_miss_latency::total       173500                       # number of ReadCleanReq MSHR miss cycles
system.l2.ReadSharedReq_mshr_miss_latency::cpu0.data      2515000                       # number of ReadSharedReq MSHR miss cycles
system.l2.ReadSharedReq_mshr_miss_latency::total      2515000                       # number of ReadSharedReq MSHR miss cycles
system.l2.demand_mshr_miss_latency::cpu0.inst       173500                       # number of demand (read+write) MSHR miss cycles
system.l2.demand_mshr_miss_latency::cpu0.data    615216500                       # number of demand (read+write) MSHR miss cycles
system.l2.demand_mshr_miss_latency::total    615390000                       # number of demand (read+write) MSHR miss cycles
system.l2.overall_mshr_miss_latency::cpu0.inst       173500                       # number of overall MSHR miss cycles
system.l2.overall_mshr_miss_latency::cpu0.data    615216500                       # number of overall MSHR miss cycles
system.l2.overall_mshr_miss_latency::total    615390000                       # number of overall MSHR miss cycles
system.l2.ReadExReq_mshr_miss_rate::cpu0.data     0.917560                       # mshr miss rate for ReadExReq accesses
system.l2.ReadExReq_mshr_miss_rate::total     0.917560                       # mshr miss rate for ReadExReq accesses
system.l2.ReadCleanReq_mshr_miss_rate::cpu0.inst     0.000031                       # mshr miss rate for ReadCleanReq accesses
system.l2.ReadCleanReq_mshr_miss_rate::total     0.000031                       # mshr miss rate for ReadCleanReq accesses
system.l2.ReadSharedReq_mshr_miss_rate::cpu0.data     0.002874                       # mshr miss rate for ReadSharedReq accesses
system.l2.ReadSharedReq_mshr_miss_rate::total     0.002874                       # mshr miss rate for ReadSharedReq accesses
system.l2.demand_mshr_miss_rate::cpu0.inst     0.000031                       # mshr miss rate for demand accesses
system.l2.demand_mshr_miss_rate::cpu0.data     0.272631                       # mshr miss rate for demand accesses
system.l2.demand_mshr_miss_rate::total       0.043237                       # mshr miss rate for demand accesses
system.l2.overall_mshr_miss_rate::cpu0.inst     0.000031                       # mshr miss rate for overall accesses
system.l2.overall_mshr_miss_rate::cpu0.data     0.272631                       # mshr miss rate for overall accesses
system.l2.overall_mshr_miss_rate::total      0.043237                       # mshr miss rate for overall accesses
system.l2.ReadExReq_avg_mshr_miss_latency::cpu0.data 183498.502546                       # average ReadExReq mshr miss latency
system.l2.ReadExReq_avg_mshr_miss_latency::total 183498.502546                       # average ReadExReq mshr miss latency
system.l2.ReadCleanReq_avg_mshr_miss_latency::cpu0.inst        86750                       # average ReadCleanReq mshr miss latency
system.l2.ReadCleanReq_avg_mshr_miss_latency::total        86750                       # average ReadCleanReq mshr miss latency
system.l2.ReadSharedReq_avg_mshr_miss_latency::cpu0.data       100600                       # average ReadSharedReq mshr miss latency
system.l2.ReadSharedReq_avg_mshr_miss_latency::total       100600                       # average ReadSharedReq mshr miss latency
system.l2.demand_avg_mshr_miss_latency::cpu0.inst        86750                       # average overall mshr miss latency
system.l2.demand_avg_mshr_miss_latency::cpu0.data 182882.431629                       # average overall mshr miss latency
system.l2.demand_avg_mshr_miss_latency::total 182825.311943                       # average overall mshr miss latency
system.l2.overall_avg_mshr_miss_latency::cpu0.inst        86750                       # average overall mshr miss latency
system.l2.overall_avg_mshr_miss_latency::cpu0.data 182882.431629                       # average overall mshr miss latency
system.l2.overall_avg_mshr_miss_latency::total 182825.311943                       # average overall mshr miss latency
system.membus.snoop_filter.tot_requests          3366                       # Total number of requests made to the snoop filter.
system.membus.snoop_filter.hit_single_requests            0                       # Number of requests hitting in the snoop filter with a single holder of the requested data.
system.membus.snoop_filter.hit_multi_requests            0                       # Number of requests hitting in the snoop filter with multiple (>1) holders of the requested data.
system.membus.snoop_filter.tot_snoops               0                       # Total number of snoops made to the snoop filter.
system.membus.snoop_filter.hit_single_snoops            0                       # Number of snoops hitting in the snoop filter with a single holder of the requested data.
system.membus.snoop_filter.hit_multi_snoops            0                       # Number of snoops hitting in the snoop filter with multiple (>1) holders of the requested data.
system.membus.pwrStateResidencyTicks::UNDEFINED  15267344125                       # Cumulative time (in ticks) in various power states
system.membus.trans_dist::ReadResp                 27                       # Transaction distribution
system.membus.trans_dist::ReadExReq              3339                       # Transaction distribution
system.membus.trans_dist::ReadExResp             3339                       # Transaction distribution
system.membus.trans_dist::ReadSharedReq            27                       # Transaction distribution
system.membus.pkt_count_system.l2.mem_side::system.mem_ctrls.port         6732                       # Packet count per connected master and slave (bytes)
system.membus.pkt_count_system.l2.mem_side::total         6732                       # Packet count per connected master and slave (bytes)
system.membus.pkt_count::total                   6732                       # Packet count per connected master and slave (bytes)
system.membus.pkt_size_system.l2.mem_side::system.mem_ctrls.port       215424                       # Cumulative packet size per connected master and slave (bytes)
system.membus.pkt_size_system.l2.mem_side::total       215424                       # Cumulative packet size per connected master and slave (bytes)
system.membus.pkt_size::total                  215424                       # Cumulative packet size per connected master and slave (bytes)
system.membus.snoops                                0                       # Total snoops (count)
system.membus.snoopTraffic                          0                       # Total snoop traffic (bytes)
system.membus.snoop_fanout::samples              3366                       # Request fanout histogram
system.membus.snoop_fanout::mean                    0                       # Request fanout histogram
system.membus.snoop_fanout::stdev                   0                       # Request fanout histogram
system.membus.snoop_fanout::underflows              0      0.00%      0.00% # Request fanout histogram
system.membus.snoop_fanout::0                    3366    100.00%    100.00% # Request fanout histogram
system.membus.snoop_fanout::1                       0      0.00%    100.00% # Request fanout histogram
system.membus.snoop_fanout::overflows               0      0.00%    100.00% # Request fanout histogram
system.membus.snoop_fanout::min_value               0                       # Request fanout histogram
system.membus.snoop_fanout::max_value               0                       # Request fanout histogram
system.membus.snoop_fanout::total                3366                       # Request fanout histogram
system.membus.reqLayer12.occupancy            4218000                       # Layer occupancy (ticks)
system.membus.reqLayer12.utilization              0.0                       # Layer utilization (%)
system.membus.respLayer1.occupancy           18490000                       # Layer occupancy (ticks)
system.membus.respLayer1.utilization              0.1                       # Layer utilization (%)
system.tol2bus.snoop_filter.tot_requests       155708                       # Total number of requests made to the snoop filter.
system.tol2bus.snoop_filter.hit_single_requests        77850                       # Number of requests hitting in the snoop filter with a single holder of the requested data.
system.tol2bus.snoop_filter.hit_multi_requests           11                       # Number of requests hitting in the snoop filter with multiple (>1) holders of the requested data.
system.tol2bus.snoop_filter.tot_snoops              0                       # Total number of snoops made to the snoop filter.
system.tol2bus.snoop_filter.hit_single_snoops            0                       # Number of snoops hitting in the snoop filter with a single holder of the requested data.
system.tol2bus.snoop_filter.hit_multi_snoops            0                       # Number of snoops hitting in the snoop filter with multiple (>1) holders of the requested data.
system.tol2bus.pwrStateResidencyTicks::UNDEFINED  15267344125                       # Cumulative time (in ticks) in various power states
system.tol2bus.trans_dist::ReadResp             74215                       # Transaction distribution
system.tol2bus.trans_dist::WritebackDirty         8967                       # Transaction distribution
system.tol2bus.trans_dist::WritebackClean        65511                       # Transaction distribution
system.tol2bus.trans_dist::CleanEvict            3372                       # Transaction distribution
system.tol2bus.trans_dist::UpgradeReq               4                       # Transaction distribution
system.tol2bus.trans_dist::UpgradeResp              4                       # Transaction distribution
system.tol2bus.trans_dist::ReadExReq             3639                       # Transaction distribution
system.tol2bus.trans_dist::ReadExResp            3639                       # Transaction distribution
system.tol2bus.trans_dist::ReadCleanReq         65515                       # Transaction distribution
system.tol2bus.trans_dist::ReadSharedReq         8700                       # Transaction distribution
system.tol2bus.pkt_count_system.cpu0.icache.mem_side::system.l2.cpu_side       196537                       # Packet count per connected master and slave (bytes)
system.tol2bus.pkt_count_system.cpu0.dcache.mem_side::system.l2.cpu_side        37025                       # Packet count per connected master and slave (bytes)
system.tol2bus.pkt_count::total                233562                       # Packet count per connected master and slave (bytes)
system.tol2bus.pkt_size_system.cpu0.icache.mem_side::system.l2.cpu_side      8385408                       # Cumulative packet size per connected master and slave (bytes)
system.tol2bus.pkt_size_system.cpu0.dcache.mem_side::system.l2.cpu_side      1363584                       # Cumulative packet size per connected master and slave (bytes)
system.tol2bus.pkt_size::total                9748992                       # Cumulative packet size per connected master and slave (bytes)
system.tol2bus.snoops                               4                       # Total snoops (count)
system.tol2bus.snoopTraffic                       256                       # Total snoop traffic (bytes)
system.tol2bus.snoop_fanout::samples            77858                       # Request fanout histogram
system.tol2bus.snoop_fanout::mean            0.000141                       # Request fanout histogram
system.tol2bus.snoop_fanout::stdev           0.011885                       # Request fanout histogram
system.tol2bus.snoop_fanout::underflows             0      0.00%      0.00% # Request fanout histogram
system.tol2bus.snoop_fanout::0                  77847     99.99%     99.99% # Request fanout histogram
system.tol2bus.snoop_fanout::1                     11      0.01%    100.00% # Request fanout histogram
system.tol2bus.snoop_fanout::2                      0      0.00%    100.00% # Request fanout histogram
system.tol2bus.snoop_fanout::3                      0      0.00%    100.00% # Request fanout histogram
system.tol2bus.snoop_fanout::4                      0      0.00%    100.00% # Request fanout histogram
system.tol2bus.snoop_fanout::5                      0      0.00%    100.00% # Request fanout histogram
system.tol2bus.snoop_fanout::6                      0      0.00%    100.00% # Request fanout histogram
system.tol2bus.snoop_fanout::7                      0      0.00%    100.00% # Request fanout histogram
system.tol2bus.snoop_fanout::8                      0      0.00%    100.00% # Request fanout histogram
system.tol2bus.snoop_fanout::9                      0      0.00%    100.00% # Request fanout histogram
system.tol2bus.snoop_fanout::10                     0      0.00%    100.00% # Request fanout histogram
system.tol2bus.snoop_fanout::11                     0      0.00%    100.00% # Request fanout histogram
system.tol2bus.snoop_fanout::12                     0      0.00%    100.00% # Request fanout histogram
system.tol2bus.snoop_fanout::13                     0      0.00%    100.00% # Request fanout histogram
system.tol2bus.snoop_fanout::14                     0      0.00%    100.00% # Request fanout histogram
system.tol2bus.snoop_fanout::15                     0      0.00%    100.00% # Request fanout histogram
system.tol2bus.snoop_fanout::16                     0      0.00%    100.00% # Request fanout histogram
system.tol2bus.snoop_fanout::17                     0      0.00%    100.00% # Request fanout histogram
system.tol2bus.snoop_fanout::18                     0      0.00%    100.00% # Request fanout histogram
system.tol2bus.snoop_fanout::19                     0      0.00%    100.00% # Request fanout histogram
system.tol2bus.snoop_fanout::20                     0      0.00%    100.00% # Request fanout histogram
system.tol2bus.snoop_fanout::21                     0      0.00%    100.00% # Request fanout histogram
system.tol2bus.snoop_fanout::22                     0      0.00%    100.00% # Request fanout histogram
system.tol2bus.snoop_fanout::23                     0      0.00%    100.00% # Request fanout histogram
system.tol2bus.snoop_fanout::24                     0      0.00%    100.00% # Request fanout histogram
system.tol2bus.snoop_fanout::overflows              0      0.00%    100.00% # Request fanout histogram
system.tol2bus.snoop_fanout::min_value              0                       # Request fanout histogram
system.tol2bus.snoop_fanout::max_value              1                       # Request fanout histogram
system.tol2bus.snoop_fanout::total              77858                       # Request fanout histogram
system.tol2bus.reqLayer0.occupancy          152332000                       # Layer occupancy (ticks)
system.tol2bus.reqLayer0.utilization              1.0                       # Layer utilization (%)
system.tol2bus.respLayer0.occupancy          98274995                       # Layer occupancy (ticks)
system.tol2bus.respLayer0.utilization             0.6                       # Layer utilization (%)
system.tol2bus.respLayer1.occupancy          18517486                       # Layer occupancy (ticks)
system.tol2bus.respLayer1.utilization             0.1                       # Layer utilization (%)

---------- End Simulation Statistics   ----------
