
---------- Begin Simulation Statistics ----------
sim_seconds                                  0.015267                       # Number of seconds simulated
sim_ticks                                 15267344125                       # Number of ticks simulated
final_tick                               4244321666750                       # Number of ticks from beginning of simulation (restored from checkpoints and never reset)
sim_freq                                 1000000000000                       # Frequency of simulated ticks
host_inst_rate                               85998607                       # Simulator instruction rate (inst/s)
host_op_rate                                160309196                       # Simulator op (including micro ops) rate (op/s)
host_tick_rate                              217282966                       # Simulator tick rate (ticks/s)
host_mem_usage                                3428856                       # Number of bytes of host memory used
host_seconds                                    70.26                       # Real time elapsed on the host
sim_insts                                  6042673396                       # Number of instructions simulated
sim_ops                                   11264092298                       # Number of ops (including micro ops) simulated
system.voltage_domain.voltage                       1                       # Voltage in Volts
system.clk_domain.clock                          1000                       # Clock period in ticks
system.mem_ctrls.pwrStateResidencyTicks::UNDEFINED  15267344125                       # Cumulative time (in ticks) in various power states
system.mem_ctrls.bytes_read::cpu0.data        7460480                       # Number of bytes read from this memory
system.mem_ctrls.bytes_read::total            7460480                       # Number of bytes read from this memory
system.mem_ctrls.bytes_written::writebacks        37056                       # Number of bytes written to this memory
system.mem_ctrls.bytes_written::total           37056                       # Number of bytes written to this memory
system.mem_ctrls.num_reads::cpu0.data          116570                       # Number of read requests responded to by this memory
system.mem_ctrls.num_reads::total              116570                       # Number of read requests responded to by this memory
system.mem_ctrls.num_writes::writebacks           579                       # Number of write requests responded to by this memory
system.mem_ctrls.num_writes::total                579                       # Number of write requests responded to by this memory
system.mem_ctrls.bw_read::cpu0.data         488656045                       # Total read bandwidth from this memory (bytes/s)
system.mem_ctrls.bw_read::total             488656045                       # Total read bandwidth from this memory (bytes/s)
system.mem_ctrls.bw_write::writebacks         2427141                       # Write bandwidth from this memory (bytes/s)
system.mem_ctrls.bw_write::total              2427141                       # Write bandwidth from this memory (bytes/s)
system.mem_ctrls.bw_total::writebacks         2427141                       # Total bandwidth to/from this memory (bytes/s)
system.mem_ctrls.bw_total::cpu0.data        488656045                       # Total bandwidth to/from this memory (bytes/s)
system.mem_ctrls.bw_total::total            491083186                       # Total bandwidth to/from this memory (bytes/s)
system.mem_ctrls.readReqs                      116570                       # Number of read requests accepted
system.mem_ctrls.writeReqs                        579                       # Number of write requests accepted
system.mem_ctrls.readBursts                    116570                       # Number of DRAM read bursts, including those serviced by the write queue
system.mem_ctrls.writeBursts                      579                       # Number of DRAM write bursts, including those merged in the write queue
system.mem_ctrls.bytesReadDRAM                7455808                       # Total number of bytes read from DRAM
system.mem_ctrls.bytesReadWrQ                    4672                       # Total number of bytes read from write queue
system.mem_ctrls.bytesWritten                   37120                       # Total number of bytes written to DRAM
system.mem_ctrls.bytesReadSys                 7460480                       # Total read bytes from the system interface side
system.mem_ctrls.bytesWrittenSys                37056                       # Total written bytes from the system interface side
system.mem_ctrls.servicedByWrQ                     73                       # Number of DRAM read bursts serviced by the write queue
system.mem_ctrls.mergedWrBursts                     0                       # Number of DRAM write bursts merged with an existing one
system.mem_ctrls.neitherReadNorWriteReqs            0                       # Number of requests that are neither read nor write
system.mem_ctrls.perBankRdBursts::0              7208                       # Per bank write bursts
system.mem_ctrls.perBankRdBursts::1              7316                       # Per bank write bursts
system.mem_ctrls.perBankRdBursts::2              7096                       # Per bank write bursts
system.mem_ctrls.perBankRdBursts::3              7906                       # Per bank write bursts
system.mem_ctrls.perBankRdBursts::4              8146                       # Per bank write bursts
system.mem_ctrls.perBankRdBursts::5              7763                       # Per bank write bursts
system.mem_ctrls.perBankRdBursts::6              7689                       # Per bank write bursts
system.mem_ctrls.perBankRdBursts::7              7289                       # Per bank write bursts
system.mem_ctrls.perBankRdBursts::8              7019                       # Per bank write bursts
system.mem_ctrls.perBankRdBursts::9              7034                       # Per bank write bursts
system.mem_ctrls.perBankRdBursts::10             6793                       # Per bank write bursts
system.mem_ctrls.perBankRdBursts::11             6995                       # Per bank write bursts
system.mem_ctrls.perBankRdBursts::12             7121                       # Per bank write bursts
system.mem_ctrls.perBankRdBursts::13             7046                       # Per bank write bursts
system.mem_ctrls.perBankRdBursts::14             6938                       # Per bank write bursts
system.mem_ctrls.perBankRdBursts::15             7138                       # Per bank write bursts
system.mem_ctrls.perBankWrBursts::0                49                       # Per bank write bursts
system.mem_ctrls.perBankWrBursts::1                55                       # Per bank write bursts
system.mem_ctrls.perBankWrBursts::2                58                       # Per bank write bursts
system.mem_ctrls.perBankWrBursts::3               107                       # Per bank write bursts
system.mem_ctrls.perBankWrBursts::4                86                       # Per bank write bursts
system.mem_ctrls.perBankWrBursts::5                38                       # Per bank write bursts
system.mem_ctrls.perBankWrBursts::6                56                       # Per bank write bursts
system.mem_ctrls.perBankWrBursts::7                23                       # Per bank write bursts
system.mem_ctrls.perBankWrBursts::8                 3                       # Per bank write bursts
system.mem_ctrls.perBankWrBursts::9                 6                       # Per bank write bursts
system.mem_ctrls.perBankWrBursts::10                4                       # Per bank write bursts
system.mem_ctrls.perBankWrBursts::11               32                       # Per bank write bursts
system.mem_ctrls.perBankWrBursts::12               11                       # Per bank write bursts
system.mem_ctrls.perBankWrBursts::13               14                       # Per bank write bursts
system.mem_ctrls.perBankWrBursts::14               19                       # Per bank write bursts
system.mem_ctrls.perBankWrBursts::15               19                       # Per bank write bursts
system.mem_ctrls.numRdRetry                         0                       # Number of times read queue was full causing retry
system.mem_ctrls.numWrRetry                         0                       # Number of times write queue was full causing retry
system.mem_ctrls.totGap                   15267333000                       # Total gap between requests
system.mem_ctrls.readPktSize::0                     0                       # Read request sizes (log2)
system.mem_ctrls.readPktSize::1                     0                       # Read request sizes (log2)
system.mem_ctrls.readPktSize::2                     0                       # Read request sizes (log2)
system.mem_ctrls.readPktSize::3                     0                       # Read request sizes (log2)
system.mem_ctrls.readPktSize::4                     0                       # Read request sizes (log2)
system.mem_ctrls.readPktSize::5                     0                       # Read request sizes (log2)
system.mem_ctrls.readPktSize::6                116570                       # Read request sizes (log2)
system.mem_ctrls.writePktSize::0                    0                       # Write request sizes (log2)
system.mem_ctrls.writePktSize::1                    0                       # Write request sizes (log2)
system.mem_ctrls.writePktSize::2                    0                       # Write request sizes (log2)
system.mem_ctrls.writePktSize::3                    0                       # Write request sizes (log2)
system.mem_ctrls.writePktSize::4                    0                       # Write request sizes (log2)
system.mem_ctrls.writePktSize::5                    0                       # Write request sizes (log2)
system.mem_ctrls.writePktSize::6                  579                       # Write request sizes (log2)
system.mem_ctrls.rdQLenPdf::0                   93237                       # What read queue length does an incoming req see
system.mem_ctrls.rdQLenPdf::1                   21444                       # What read queue length does an incoming req see
system.mem_ctrls.rdQLenPdf::2                    1724                       # What read queue length does an incoming req see
system.mem_ctrls.rdQLenPdf::3                      92                       # What read queue length does an incoming req see
system.mem_ctrls.rdQLenPdf::4                       0                       # What read queue length does an incoming req see
system.mem_ctrls.rdQLenPdf::5                       0                       # What read queue length does an incoming req see
system.mem_ctrls.rdQLenPdf::6                       0                       # What read queue length does an incoming req see
system.mem_ctrls.rdQLenPdf::7                       0                       # What read queue length does an incoming req see
system.mem_ctrls.rdQLenPdf::8                       0                       # What read queue length does an incoming req see
system.mem_ctrls.rdQLenPdf::9                       0                       # What read queue length does an incoming req see
system.mem_ctrls.rdQLenPdf::10                      0                       # What read queue length does an incoming req see
system.mem_ctrls.rdQLenPdf::11                      0                       # What read queue length does an incoming req see
system.mem_ctrls.rdQLenPdf::12                      0                       # What read queue length does an incoming req see
system.mem_ctrls.rdQLenPdf::13                      0                       # What read queue length does an incoming req see
system.mem_ctrls.rdQLenPdf::14                      0                       # What read queue length does an incoming req see
system.mem_ctrls.rdQLenPdf::15                      0                       # What read queue length does an incoming req see
system.mem_ctrls.rdQLenPdf::16                      0                       # What read queue length does an incoming req see
system.mem_ctrls.rdQLenPdf::17                      0                       # What read queue length does an incoming req see
system.mem_ctrls.rdQLenPdf::18                      0                       # What read queue length does an incoming req see
system.mem_ctrls.rdQLenPdf::19                      0                       # What read queue length does an incoming req see
system.mem_ctrls.rdQLenPdf::20                      0                       # What read queue length does an incoming req see
system.mem_ctrls.rdQLenPdf::21                      0                       # What read queue length does an incoming req see
system.mem_ctrls.rdQLenPdf::22                      0                       # What read queue length does an incoming req see
system.mem_ctrls.rdQLenPdf::23                      0                       # What read queue length does an incoming req see
system.mem_ctrls.rdQLenPdf::24                      0                       # What read queue length does an incoming req see
system.mem_ctrls.rdQLenPdf::25                      0                       # What read queue length does an incoming req see
system.mem_ctrls.rdQLenPdf::26                      0                       # What read queue length does an incoming req see
system.mem_ctrls.rdQLenPdf::27                      0                       # What read queue length does an incoming req see
system.mem_ctrls.rdQLenPdf::28                      0                       # What read queue length does an incoming req see
system.mem_ctrls.rdQLenPdf::29                      0                       # What read queue length does an incoming req see
system.mem_ctrls.rdQLenPdf::30                      0                       # What read queue length does an incoming req see
system.mem_ctrls.rdQLenPdf::31                      0                       # What read queue length does an incoming req see
system.mem_ctrls.wrQLenPdf::0                       0                       # What write queue length does an incoming req see
system.mem_ctrls.wrQLenPdf::1                       0                       # What write queue length does an incoming req see
system.mem_ctrls.wrQLenPdf::2                       0                       # What write queue length does an incoming req see
system.mem_ctrls.wrQLenPdf::3                       0                       # What write queue length does an incoming req see
system.mem_ctrls.wrQLenPdf::4                       0                       # What write queue length does an incoming req see
system.mem_ctrls.wrQLenPdf::5                       0                       # What write queue length does an incoming req see
system.mem_ctrls.wrQLenPdf::6                       0                       # What write queue length does an incoming req see
system.mem_ctrls.wrQLenPdf::7                       0                       # What write queue length does an incoming req see
system.mem_ctrls.wrQLenPdf::8                       0                       # What write queue length does an incoming req see
system.mem_ctrls.wrQLenPdf::9                       0                       # What write queue length does an incoming req see
system.mem_ctrls.wrQLenPdf::10                      0                       # What write queue length does an incoming req see
system.mem_ctrls.wrQLenPdf::11                      0                       # What write queue length does an incoming req see
system.mem_ctrls.wrQLenPdf::12                      0                       # What write queue length does an incoming req see
system.mem_ctrls.wrQLenPdf::13                      0                       # What write queue length does an incoming req see
system.mem_ctrls.wrQLenPdf::14                      0                       # What write queue length does an incoming req see
system.mem_ctrls.wrQLenPdf::15                      2                       # What write queue length does an incoming req see
system.mem_ctrls.wrQLenPdf::16                      2                       # What write queue length does an incoming req see
system.mem_ctrls.wrQLenPdf::17                     36                       # What write queue length does an incoming req see
system.mem_ctrls.wrQLenPdf::18                     36                       # What write queue length does an incoming req see
system.mem_ctrls.wrQLenPdf::19                     36                       # What write queue length does an incoming req see
system.mem_ctrls.wrQLenPdf::20                     36                       # What write queue length does an incoming req see
system.mem_ctrls.wrQLenPdf::21                     36                       # What write queue length does an incoming req see
system.mem_ctrls.wrQLenPdf::22                     35                       # What write queue length does an incoming req see
system.mem_ctrls.wrQLenPdf::23                     36                       # What write queue length does an incoming req see
system.mem_ctrls.wrQLenPdf::24                     36                       # What write queue length does an incoming req see
system.mem_ctrls.wrQLenPdf::25                     36                       # What write queue length does an incoming req see
system.mem_ctrls.wrQLenPdf::26                     36                       # What write queue length does an incoming req see
system.mem_ctrls.wrQLenPdf::27                     36                       # What write queue length does an incoming req see
system.mem_ctrls.wrQLenPdf::28                     36                       # What write queue length does an incoming req see
system.mem_ctrls.wrQLenPdf::29                     36                       # What write queue length does an incoming req see
system.mem_ctrls.wrQLenPdf::30                     36                       # What write queue length does an incoming req see
system.mem_ctrls.wrQLenPdf::31                     36                       # What write queue length does an incoming req see
system.mem_ctrls.wrQLenPdf::32                     36                       # What write queue length does an incoming req see
system.mem_ctrls.wrQLenPdf::33                      0                       # What write queue length does an incoming req see
system.mem_ctrls.wrQLenPdf::34                      0                       # What write queue length does an incoming req see
system.mem_ctrls.wrQLenPdf::35                      0                       # What write queue length does an incoming req see
system.mem_ctrls.wrQLenPdf::36                      0                       # What write queue length does an incoming req see
system.mem_ctrls.wrQLenPdf::37                      0                       # What write queue length does an incoming req see
system.mem_ctrls.wrQLenPdf::38                      0                       # What write queue length does an incoming req see
system.mem_ctrls.wrQLenPdf::39                      0                       # What write queue length does an incoming req see
system.mem_ctrls.wrQLenPdf::40                      0                       # What write queue length does an incoming req see
system.mem_ctrls.wrQLenPdf::41                      0                       # What write queue length does an incoming req see
system.mem_ctrls.wrQLenPdf::42                      0                       # What write queue length does an incoming req see
system.mem_ctrls.wrQLenPdf::43                      0                       # What write queue length does an incoming req see
system.mem_ctrls.wrQLenPdf::44                      0                       # What write queue length does an incoming req see
system.mem_ctrls.wrQLenPdf::45                      0                       # What write queue length does an incoming req see
system.mem_ctrls.wrQLenPdf::46                      0                       # What write queue length does an incoming req see
system.mem_ctrls.wrQLenPdf::47                      0                       # What write queue length does an incoming req see
system.mem_ctrls.wrQLenPdf::48                      0                       # What write queue length does an incoming req see
system.mem_ctrls.wrQLenPdf::49                      0                       # What write queue length does an incoming req see
system.mem_ctrls.wrQLenPdf::50                      0                       # What write queue length does an incoming req see
system.mem_ctrls.wrQLenPdf::51                      0                       # What write queue length does an incoming req see
system.mem_ctrls.wrQLenPdf::52                      0                       # What write queue length does an incoming req see
system.mem_ctrls.wrQLenPdf::53                      0                       # What write queue length does an incoming req see
system.mem_ctrls.wrQLenPdf::54                      0                       # What write queue length does an incoming req see
system.mem_ctrls.wrQLenPdf::55                      0                       # What write queue length does an incoming req see
system.mem_ctrls.wrQLenPdf::56                      0                       # What write queue length does an incoming req see
system.mem_ctrls.wrQLenPdf::57                      0                       # What write queue length does an incoming req see
system.mem_ctrls.wrQLenPdf::58                      0                       # What write queue length does an incoming req see
system.mem_ctrls.wrQLenPdf::59                      0                       # What write queue length does an incoming req see
system.mem_ctrls.wrQLenPdf::60                      0                       # What write queue length does an incoming req see
system.mem_ctrls.wrQLenPdf::61                      0                       # What write queue length does an incoming req see
system.mem_ctrls.wrQLenPdf::62                      0                       # What write queue length does an incoming req see
system.mem_ctrls.wrQLenPdf::63                      0                       # What write queue length does an incoming req see
system.mem_ctrls.bytesPerActivate::samples        76333                       # Bytes accessed per row activation
system.mem_ctrls.bytesPerActivate::mean     98.155188                       # Bytes accessed per row activation
system.mem_ctrls.bytesPerActivate::gmean    87.321116                       # Bytes accessed per row activation
system.mem_ctrls.bytesPerActivate::stdev    56.142116                       # Bytes accessed per row activation
system.mem_ctrls.bytesPerActivate::64-127        49164     64.41%     64.41% # Bytes accessed per row activation
system.mem_ctrls.bytesPerActivate::128-191        17921     23.48%     87.88% # Bytes accessed per row activation
system.mem_ctrls.bytesPerActivate::192-255         6246      8.18%     96.07% # Bytes accessed per row activation
system.mem_ctrls.bytesPerActivate::256-319         2086      2.73%     98.80% # Bytes accessed per row activation
system.mem_ctrls.bytesPerActivate::320-383          645      0.84%     99.64% # Bytes accessed per row activation
system.mem_ctrls.bytesPerActivate::384-447          197      0.26%     99.90% # Bytes accessed per row activation
system.mem_ctrls.bytesPerActivate::448-511           48      0.06%     99.97% # Bytes accessed per row activation
system.mem_ctrls.bytesPerActivate::512-575           14      0.02%     99.98% # Bytes accessed per row activation
system.mem_ctrls.bytesPerActivate::576-639            4      0.01%     99.99% # Bytes accessed per row activation
system.mem_ctrls.bytesPerActivate::640-703            4      0.01%     99.99% # Bytes accessed per row activation
system.mem_ctrls.bytesPerActivate::704-767            1      0.00%    100.00% # Bytes accessed per row activation
system.mem_ctrls.bytesPerActivate::768-831            1      0.00%    100.00% # Bytes accessed per row activation
system.mem_ctrls.bytesPerActivate::832-895            1      0.00%    100.00% # Bytes accessed per row activation
system.mem_ctrls.bytesPerActivate::960-1023            1      0.00%    100.00% # Bytes accessed per row activation
system.mem_ctrls.bytesPerActivate::total        76333                       # Bytes accessed per row activation
system.mem_ctrls.rdPerTurnAround::samples           36                       # Reads before turning the bus around for writes
system.mem_ctrls.rdPerTurnAround::mean    3220.277778                       # Reads before turning the bus around for writes
system.mem_ctrls.rdPerTurnAround::gmean   3143.435694                       # Reads before turning the bus around for writes
system.mem_ctrls.rdPerTurnAround::stdev    731.780084                       # Reads before turning the bus around for writes
system.mem_ctrls.rdPerTurnAround::1792-2047            1      2.78%      2.78% # Reads before turning the bus around for writes
system.mem_ctrls.rdPerTurnAround::2048-2303            2      5.56%      8.33% # Reads before turning the bus around for writes
system.mem_ctrls.rdPerTurnAround::2304-2559            3      8.33%     16.67% # Reads before turning the bus around for writes
system.mem_ctrls.rdPerTurnAround::2560-2815            3      8.33%     25.00% # Reads before turning the bus around for writes
system.mem_ctrls.rdPerTurnAround::2816-3071            8     22.22%     47.22% # Reads before turning the bus around for writes
system.mem_ctrls.rdPerTurnAround::3072-3327            6     16.67%     63.89% # Reads before turning the bus around for writes
system.mem_ctrls.rdPerTurnAround::3328-3583            6     16.67%     80.56% # Reads before turning the bus around for writes
system.mem_ctrls.rdPerTurnAround::3840-4095            2      5.56%     86.11% # Reads before turning the bus around for writes
system.mem_ctrls.rdPerTurnAround::4096-4351            1      2.78%     88.89% # Reads before turning the bus around for writes
system.mem_ctrls.rdPerTurnAround::4352-4607            1      2.78%     91.67% # Reads before turning the bus around for writes
system.mem_ctrls.rdPerTurnAround::4608-4863            2      5.56%     97.22% # Reads before turning the bus around for writes
system.mem_ctrls.rdPerTurnAround::4864-5119            1      2.78%    100.00% # Reads before turning the bus around for writes
system.mem_ctrls.rdPerTurnAround::total            36                       # Reads before turning the bus around for writes
system.mem_ctrls.wrPerTurnAround::samples           36                       # Writes before turning the bus around for reads
system.mem_ctrls.wrPerTurnAround::mean      16.111111                       # Writes before turning the bus around for reads
system.mem_ctrls.wrPerTurnAround::gmean     16.105039                       # Writes before turning the bus around for reads
system.mem_ctrls.wrPerTurnAround::stdev      0.464621                       # Writes before turning the bus around for reads
system.mem_ctrls.wrPerTurnAround::16               34     94.44%     94.44% # Writes before turning the bus around for reads
system.mem_ctrls.wrPerTurnAround::18                2      5.56%    100.00% # Writes before turning the bus around for reads
system.mem_ctrls.wrPerTurnAround::total            36                       # Writes before turning the bus around for reads
system.mem_ctrls.totQLat                   3196908000                       # Total ticks spent queuing
system.mem_ctrls.totMemAccLat              5381226750                       # Total ticks spent from burst creation until serviced by the DRAM
system.mem_ctrls.totBusLat                  582485000                       # Total ticks spent in databus transfers
system.mem_ctrls.avgQLat                     27441.98                       # Average queueing delay per DRAM burst
system.mem_ctrls.avgBusLat                    5000.00                       # Average bus latency per DRAM burst
system.mem_ctrls.avgMemAccLat                46191.98                       # Average memory access latency per DRAM burst
system.mem_ctrls.avgRdBW                       488.35                       # Average DRAM read bandwidth in MiByte/s
system.mem_ctrls.avgWrBW                         2.43                       # Average achieved write bandwidth in MiByte/s
system.mem_ctrls.avgRdBWSys                    488.66                       # Average system read bandwidth in MiByte/s
system.mem_ctrls.avgWrBWSys                      2.43                       # Average system write bandwidth in MiByte/s
system.mem_ctrls.peakBW                      12800.00                       # Theoretical peak bandwidth in MiByte/s
system.mem_ctrls.busUtil                         3.83                       # Data bus utilization in percentage
system.mem_ctrls.busUtilRead                     3.82                       # Data bus utilization in percentage for reads
system.mem_ctrls.busUtilWrite                    0.02                       # Data bus utilization in percentage for writes
system.mem_ctrls.avgRdQLen                       1.18                       # Average read queue length when enqueuing
system.mem_ctrls.avgWrQLen                      25.38                       # Average write queue length when enqueuing
system.mem_ctrls.readRowHits                    40347                       # Number of row buffer hits during reads
system.mem_ctrls.writeRowHits                     396                       # Number of row buffer hits during writes
system.mem_ctrls.readRowHitRate                 34.63                       # Row buffer hit rate for reads
system.mem_ctrls.writeRowHitRate                68.39                       # Row buffer hit rate for writes
system.mem_ctrls.avgGap                     130324.06                       # Average gap between requests
system.mem_ctrls.pageHitRate                    34.80                       # Row buffer hit rate, read and write combined
system.mem_ctrls_0.actEnergy                282058560                       # Energy for activate commands per rank (pJ)
system.mem_ctrls_0.preEnergy                149921475                       # Energy for precharge commands per rank (pJ)
system.mem_ctrls_0.readEnergy               431355960                       # Energy for read commands per rank (pJ)
system.mem_ctrls_0.writeEnergy                2463840                       # Energy for write commands per rank (pJ)
system.mem_ctrls_0.refreshEnergy         1214528640.000000                       # Energy for refresh commands per rank (pJ)
system.mem_ctrls_0.actBackEnergy           1208072820                       # Energy for active background per rank (pJ)
system.mem_ctrls_0.preBackEnergy             28646880                       # Energy for precharge background per rank (pJ)
system.mem_ctrls_0.actPowerDownEnergy      5097820080                       # Energy for active power-down per rank (pJ)
system.mem_ctrls_0.prePowerDownEnergy       460974720                       # Energy for precharge power-down per rank (pJ)
system.mem_ctrls_0.selfRefreshEnergy         60795360                       # Energy for self refresh per rank (pJ)
system.mem_ctrls_0.totalEnergy             8936714025                       # Total energy per rank (pJ)
system.mem_ctrls_0.averagePower            585.348306                       # Core power per rank (mW)
system.mem_ctrls_0.totalIdleTime          12542819500                       # Total Idle time Per DRAM Rank
system.mem_ctrls_0.memoryStateTime::IDLE     20436000                       # Time in different power states
system.mem_ctrls_0.memoryStateTime::REF     514000000                       # Time in different power states
system.mem_ctrls_0.memoryStateTime::SREF    163398250                       # Time in different power states
system.mem_ctrls_0.memoryStateTime::PRE_PDN   1200387500                       # Time in different power states
system.mem_ctrls_0.memoryStateTime::ACT    2190088625                       # Time in different power states
system.mem_ctrls_0.memoryStateTime::ACT_PDN  11179033750                       # Time in different power states
system.mem_ctrls_1.actEnergy                262966200                       # Energy for activate commands per rank (pJ)
system.mem_ctrls_1.preEnergy                139762260                       # Energy for precharge commands per rank (pJ)
system.mem_ctrls_1.readEnergy               400439760                       # Energy for read commands per rank (pJ)
system.mem_ctrls_1.writeEnergy                 563760                       # Energy for write commands per rank (pJ)
system.mem_ctrls_1.refreshEnergy         1208996880.000000                       # Energy for refresh commands per rank (pJ)
system.mem_ctrls_1.actBackEnergy           1136831940                       # Energy for active background per rank (pJ)
system.mem_ctrls_1.preBackEnergy             29242080                       # Energy for precharge background per rank (pJ)
system.mem_ctrls_1.actPowerDownEnergy      5085787950                       # Energy for active power-down per rank (pJ)
system.mem_ctrls_1.prePowerDownEnergy       483533280                       # Energy for precharge power-down per rank (pJ)
system.mem_ctrls_1.selfRefreshEnergy         94017840                       # Energy for self refresh per rank (pJ)
system.mem_ctrls_1.totalEnergy             8842293450                       # Total energy per rank (pJ)
system.mem_ctrls_1.averagePower            579.163827                       # Core power per rank (mW)
system.mem_ctrls_1.totalIdleTime          12697103625                       # Total Idle time Per DRAM Rank
system.mem_ctrls_1.memoryStateTime::IDLE     22296000                       # Time in different power states
system.mem_ctrls_1.memoryStateTime::REF     511708000                       # Time in different power states
system.mem_ctrls_1.memoryStateTime::SREF    285557000                       # Time in different power states
system.mem_ctrls_1.memoryStateTime::PRE_PDN   1259191000                       # Time in different power states
system.mem_ctrls_1.memoryStateTime::ACT    2035801750                       # Time in different power states
system.mem_ctrls_1.memoryStateTime::ACT_PDN  11152790375                       # Time in different power states
system.pwrStateResidencyTicks::UNDEFINED  15267344125                       # Cumulative time (in ticks) in various power states
system.cpu0.branchPred.lookups                3467279                       # Number of BP lookups
system.cpu0.branchPred.condPredicted          3467279                       # Number of conditional branches predicted
system.cpu0.branchPred.condIncorrect           137670                       # Number of conditional branches incorrect
system.cpu0.branchPred.BTBLookups             2541376                       # Number of BTB lookups
system.cpu0.branchPred.BTBHits                      0                       # Number of BTB hits
system.cpu0.branchPred.BTBCorrect                   0                       # Number of correct BTB predictions (this stat may not work properly.
system.cpu0.branchPred.BTBHitPct             0.000000                       # BTB Hit Percentage
system.cpu0.branchPred.usedRAS                  83851                       # Number of times the RAS was used to get a target.
system.cpu0.branchPred.RASInCorrect             13104                       # Number of incorrect RAS predictions.
system.cpu0.branchPred.indirectLookups        2541376                       # Number of indirect predictor lookups.
system.cpu0.branchPred.indirectHits           1507910                       # Number of indirect target hits.
system.cpu0.branchPred.indirectMisses         1033466                       # Number of indirect misses.
system.cpu0.branchPredindirectMispredicted        38480                       # Number of mispredicted indirect branches.
system.cpu_voltage_domain.voltage                   1                       # Voltage in Volts
system.cpu_clk_domain.clock                       500                       # Clock period in ticks
system.cpu0.dtb.walker.pwrStateResidencyTicks::UNDEFINED  15267344125                       # Cumulative time (in ticks) in various power states
system.cpu0.dtb.rdAccesses                    1719112                       # TLB accesses on read requests
system.cpu0.dtb.wrAccesses                     100744                       # TLB accesses on write requests
system.cpu0.dtb.rdMisses                       385607                       # TLB misses on read requests
system.cpu0.dtb.wrMisses                         1563                       # TLB misses on write requests
system.cpu0.apic_clk_domain.clock                8000                       # Clock period in ticks
system.cpu0.interrupts.pwrStateResidencyTicks::UNDEFINED  15267344125                       # Cumulative time (in ticks) in various power states
system.cpu0.itb.walker.pwrStateResidencyTicks::UNDEFINED  15267344125                       # Cumulative time (in ticks) in various power states
system.cpu0.itb.rdAccesses                          0                       # TLB accesses on read requests
system.cpu0.itb.wrAccesses                    2994620                       # TLB accesses on write requests
system.cpu0.itb.rdMisses                            0                       # TLB misses on read requests
system.cpu0.itb.wrMisses                        12630                       # TLB misses on write requests
system.cpu0.workload.numSyscalls                    0                       # Number of system calls
system.cpu0.pwrStateResidencyTicks::ON    15267344125                       # Cumulative time (in ticks) in various power states
system.cpu0.numCycles                        30534688                       # number of cpu cycles simulated
system.cpu0.numWorkItemsStarted                     0                       # number of work items this cpu started
system.cpu0.numWorkItemsCompleted                   0                       # number of work items this cpu completed
system.cpu0.fetch.icacheStallCycles           3050776                       # Number of cycles fetch is stalled on an Icache miss
system.cpu0.fetch.Insts                       9898497                       # Number of instructions fetch has processed
system.cpu0.fetch.Branches                    3467279                       # Number of branches that fetch encountered
system.cpu0.fetch.predictedBranches           1591761                       # Number of branches that fetch has predicted taken
system.cpu0.fetch.Cycles                     27200027                       # Number of cycles fetch has run and was not squashing or blocked
system.cpu0.fetch.SquashCycles                 283588                       # Number of cycles fetch has spent squashing
system.cpu0.fetch.TlbCycles                      2616                       # Number of cycles fetch has spent waiting for tlb
system.cpu0.fetch.MiscStallCycles                2782                       # Number of cycles fetch has spent waiting on interrupts, or bad addresses, or out of MSHRs
system.cpu0.fetch.PendingTrapStallCycles        99074                       # Number of stall cycles due to pending traps
system.cpu0.fetch.CacheLines                  2981990                       # Number of cache lines fetched
system.cpu0.fetch.IcacheSquashes                18614                       # Number of outstanding Icache misses that were squashed
system.cpu0.fetch.ItlbSquashes                     18                       # Number of outstanding ITLB misses that were squashed
system.cpu0.fetch.rateDist::samples          30497069                       # Number of instructions fetched each cycle (Total)
system.cpu0.fetch.rateDist::mean             0.651775                       # Number of instructions fetched each cycle (Total)
system.cpu0.fetch.rateDist::stdev            1.972701                       # Number of instructions fetched each cycle (Total)
system.cpu0.fetch.rateDist::underflows              0      0.00%      0.00% # Number of instructions fetched each cycle (Total)
system.cpu0.fetch.rateDist::0                26602490     87.23%     87.23% # Number of instructions fetched each cycle (Total)
system.cpu0.fetch.rateDist::1                   31365      0.10%     87.33% # Number of instructions fetched each cycle (Total)
system.cpu0.fetch.rateDist::2                 1500817      4.92%     92.25% # Number of instructions fetched each cycle (Total)
system.cpu0.fetch.rateDist::3                   48788      0.16%     92.41% # Number of instructions fetched each cycle (Total)
system.cpu0.fetch.rateDist::4                  269099      0.88%     93.30% # Number of instructions fetched each cycle (Total)
system.cpu0.fetch.rateDist::5                  111046      0.36%     93.66% # Number of instructions fetched each cycle (Total)
system.cpu0.fetch.rateDist::6                  180568      0.59%     94.25% # Number of instructions fetched each cycle (Total)
system.cpu0.fetch.rateDist::7                   40331      0.13%     94.38% # Number of instructions fetched each cycle (Total)
system.cpu0.fetch.rateDist::8                 1712565      5.62%    100.00% # Number of instructions fetched each cycle (Total)
system.cpu0.fetch.rateDist::overflows               0      0.00%    100.00% # Number of instructions fetched each cycle (Total)
system.cpu0.fetch.rateDist::min_value               0                       # Number of instructions fetched each cycle (Total)
system.cpu0.fetch.rateDist::max_value               8                       # Number of instructions fetched each cycle (Total)
system.cpu0.fetch.rateDist::total            30497069                       # Number of instructions fetched each cycle (Total)
system.cpu0.fetch.branchRate                 0.113552                       # Number of branch fetches per cycle
system.cpu0.fetch.rate                       0.324172                       # Number of inst fetches per cycle
system.cpu0.decode.IdleCycles                 1537469                       # Number of cycles decode is idle
system.cpu0.decode.BlockedCycles             26218999                       # Number of cycles decode is blocked
system.cpu0.decode.RunCycles                  1920427                       # Number of cycles decode is running
system.cpu0.decode.UnblockCycles               678380                       # Number of cycles decode is unblocking
system.cpu0.decode.SquashCycles                141794                       # Number of cycles decode is squashing
system.cpu0.decode.DecodedInsts              16742538                       # Number of instructions handled by decode
system.cpu0.rename.SquashCycles                141794                       # Number of cycles rename is squashing
system.cpu0.rename.IdleCycles                 1772322                       # Number of cycles rename is idle
system.cpu0.rename.BlockCycles               23813196                       # Number of cycles rename is blocking
system.cpu0.rename.serializeStallCycles         25085                       # count of cycles rename stalled for serializing inst
system.cpu0.rename.RunCycles                  2221276                       # Number of cycles rename is running
system.cpu0.rename.UnblockCycles              2523396                       # Number of cycles rename is unblocking
system.cpu0.rename.RenamedInsts              16120611                       # Number of instructions processed by rename
system.cpu0.rename.ROBFullEvents                74175                       # Number of times rename has blocked due to ROB full
system.cpu0.rename.IQFullEvents               2216858                       # Number of times rename has blocked due to IQ full
system.cpu0.rename.LQFullEvents                183425                       # Number of times rename has blocked due to LQ full
system.cpu0.rename.SQFullEvents                 10078                       # Number of times rename has blocked due to SQ full
system.cpu0.rename.RenamedOperands           19222567                       # Number of destination operands rename has renamed
system.cpu0.rename.RenameLookups             45144488                       # Number of register rename lookups that rename has made
system.cpu0.rename.int_rename_lookups        20938361                       # Number of integer rename lookups
system.cpu0.rename.fp_rename_lookups            77694                       # Number of floating rename lookups
system.cpu0.rename.CommittedMaps              7430559                       # Number of HB maps that are committed
system.cpu0.rename.UndoneMaps                11791972                       # Number of HB maps that are undone due to squashing
system.cpu0.rename.serializingInsts               760                       # count of serializing insts renamed
system.cpu0.rename.tempSerializingInsts           878                       # count of temporary serializing insts renamed
system.cpu0.rename.skidInsts                  4322753                       # count of insts added to the skid buffer
system.cpu0.memDep0.insertedLoads             2957450                       # Number of loads inserted to the mem dependence unit.
system.cpu0.memDep0.insertedStores             147465                       # Number of stores inserted to the mem dependence unit.
system.cpu0.memDep0.conflictingLoads             7769                       # Number of conflicting loads.
system.cpu0.memDep0.conflictingStores            8715                       # Number of conflicting stores.
system.cpu0.iq.iqInstsAdded                  15383950                       # Number of instructions added to the IQ (excludes non-spec)
system.cpu0.iq.iqNonSpecInstsAdded               8299                       # Number of non-speculative instructions added to the IQ
system.cpu0.iq.iqInstsIssued                 11151338                       # Number of instructions issued
system.cpu0.iq.iqSquashedInstsIssued            12848                       # Number of squashed instructions issued
system.cpu0.iq.iqSquashedInstsExamined        9189385                       # Number of squashed instructions iterated over during squash; mainly for profiling
system.cpu0.iq.iqSquashedOperandsExamined     19607111                       # Number of squashed operands that are examined and possibly removed from graph
system.cpu0.iq.iqSquashedNonSpecRemoved          8299                       # Number of squashed non-spec instructions that were removed
system.cpu0.iq.issued_per_cycle::samples     30497069                       # Number of insts issued each cycle
system.cpu0.iq.issued_per_cycle::mean        0.365653                       # Number of insts issued each cycle
system.cpu0.iq.issued_per_cycle::stdev       1.067652                       # Number of insts issued each cycle
system.cpu0.iq.issued_per_cycle::underflows            0      0.00%      0.00% # Number of insts issued each cycle
system.cpu0.iq.issued_per_cycle::0           25948455     85.09%     85.09% # Number of insts issued each cycle
system.cpu0.iq.issued_per_cycle::1            1752041      5.74%     90.83% # Number of insts issued each cycle
system.cpu0.iq.issued_per_cycle::2             982349      3.22%     94.05% # Number of insts issued each cycle
system.cpu0.iq.issued_per_cycle::3             685933      2.25%     96.30% # Number of insts issued each cycle
system.cpu0.iq.issued_per_cycle::4             661889      2.17%     98.47% # Number of insts issued each cycle
system.cpu0.iq.issued_per_cycle::5             209926      0.69%     99.16% # Number of insts issued each cycle
system.cpu0.iq.issued_per_cycle::6             157900      0.52%     99.68% # Number of insts issued each cycle
system.cpu0.iq.issued_per_cycle::7              56394      0.18%     99.86% # Number of insts issued each cycle
system.cpu0.iq.issued_per_cycle::8              42182      0.14%    100.00% # Number of insts issued each cycle
system.cpu0.iq.issued_per_cycle::overflows            0      0.00%    100.00% # Number of insts issued each cycle
system.cpu0.iq.issued_per_cycle::min_value            0                       # Number of insts issued each cycle
system.cpu0.iq.issued_per_cycle::max_value            8                       # Number of insts issued each cycle
system.cpu0.iq.issued_per_cycle::total       30497069                       # Number of insts issued each cycle
system.cpu0.iq.fu_full::No_OpClass                  0      0.00%      0.00% # attempts to use FU when none available
system.cpu0.iq.fu_full::IntAlu                  22310     70.58%     70.58% # attempts to use FU when none available
system.cpu0.iq.fu_full::IntMult                     0      0.00%     70.58% # attempts to use FU when none available
system.cpu0.iq.fu_full::IntDiv                      0      0.00%     70.58% # attempts to use FU when none available
system.cpu0.iq.fu_full::FloatAdd                 2198      6.95%     77.53% # attempts to use FU when none available
system.cpu0.iq.fu_full::FloatCmp                    0      0.00%     77.53% # attempts to use FU when none available
system.cpu0.iq.fu_full::FloatCvt                    0      0.00%     77.53% # attempts to use FU when none available
system.cpu0.iq.fu_full::FloatMult                   0      0.00%     77.53% # attempts to use FU when none available
system.cpu0.iq.fu_full::FloatMultAcc                0      0.00%     77.53% # attempts to use FU when none available
system.cpu0.iq.fu_full::FloatDiv                    0      0.00%     77.53% # attempts to use FU when none available
system.cpu0.iq.fu_full::FloatMisc                   0      0.00%     77.53% # attempts to use FU when none available
system.cpu0.iq.fu_full::FloatSqrt                   0      0.00%     77.53% # attempts to use FU when none available
system.cpu0.iq.fu_full::SimdAdd                     0      0.00%     77.53% # attempts to use FU when none available
system.cpu0.iq.fu_full::SimdAddAcc                  0      0.00%     77.53% # attempts to use FU when none available
system.cpu0.iq.fu_full::SimdAlu                     0      0.00%     77.53% # attempts to use FU when none available
system.cpu0.iq.fu_full::SimdCmp                     0      0.00%     77.53% # attempts to use FU when none available
system.cpu0.iq.fu_full::SimdCvt                     0      0.00%     77.53% # attempts to use FU when none available
system.cpu0.iq.fu_full::SimdMisc                    0      0.00%     77.53% # attempts to use FU when none available
system.cpu0.iq.fu_full::SimdMult                    0      0.00%     77.53% # attempts to use FU when none available
system.cpu0.iq.fu_full::SimdMultAcc                 0      0.00%     77.53% # attempts to use FU when none available
system.cpu0.iq.fu_full::SimdShift                   0      0.00%     77.53% # attempts to use FU when none available
system.cpu0.iq.fu_full::SimdShiftAcc                0      0.00%     77.53% # attempts to use FU when none available
system.cpu0.iq.fu_full::SimdSqrt                    0      0.00%     77.53% # attempts to use FU when none available
system.cpu0.iq.fu_full::SimdFloatAdd                0      0.00%     77.53% # attempts to use FU when none available
system.cpu0.iq.fu_full::SimdFloatAlu                0      0.00%     77.53% # attempts to use FU when none available
system.cpu0.iq.fu_full::SimdFloatCmp                0      0.00%     77.53% # attempts to use FU when none available
system.cpu0.iq.fu_full::SimdFloatCvt                0      0.00%     77.53% # attempts to use FU when none available
system.cpu0.iq.fu_full::SimdFloatDiv                0      0.00%     77.53% # attempts to use FU when none available
system.cpu0.iq.fu_full::SimdFloatMisc               0      0.00%     77.53% # attempts to use FU when none available
system.cpu0.iq.fu_full::SimdFloatMult               0      0.00%     77.53% # attempts to use FU when none available
system.cpu0.iq.fu_full::SimdFloatMultAcc            0      0.00%     77.53% # attempts to use FU when none available
system.cpu0.iq.fu_full::SimdFloatSqrt               0      0.00%     77.53% # attempts to use FU when none available
system.cpu0.iq.fu_full::MemRead                  6280     19.87%     97.40% # attempts to use FU when none available
system.cpu0.iq.fu_full::MemWrite                  532      1.68%     99.08% # attempts to use FU when none available
system.cpu0.iq.fu_full::FloatMemRead              246      0.78%     99.86% # attempts to use FU when none available
system.cpu0.iq.fu_full::FloatMemWrite              45      0.14%    100.00% # attempts to use FU when none available
system.cpu0.iq.fu_full::IprAccess                   0      0.00%    100.00% # attempts to use FU when none available
system.cpu0.iq.fu_full::InstPrefetch                0      0.00%    100.00% # attempts to use FU when none available
system.cpu0.iq.FU_type_0::No_OpClass            34531      0.31%      0.31% # Type of FU issued
system.cpu0.iq.FU_type_0::IntAlu              9157299     82.12%     82.43% # Type of FU issued
system.cpu0.iq.FU_type_0::IntMult                2117      0.02%     82.45% # Type of FU issued
system.cpu0.iq.FU_type_0::IntDiv                17909      0.16%     82.61% # Type of FU issued
system.cpu0.iq.FU_type_0::FloatAdd              27610      0.25%     82.86% # Type of FU issued
system.cpu0.iq.FU_type_0::FloatCmp                  0      0.00%     82.86% # Type of FU issued
system.cpu0.iq.FU_type_0::FloatCvt                  0      0.00%     82.86% # Type of FU issued
system.cpu0.iq.FU_type_0::FloatMult                 0      0.00%     82.86% # Type of FU issued
system.cpu0.iq.FU_type_0::FloatMultAcc              0      0.00%     82.86% # Type of FU issued
system.cpu0.iq.FU_type_0::FloatDiv                  0      0.00%     82.86% # Type of FU issued
system.cpu0.iq.FU_type_0::FloatMisc                 0      0.00%     82.86% # Type of FU issued
system.cpu0.iq.FU_type_0::FloatSqrt                 0      0.00%     82.86% # Type of FU issued
system.cpu0.iq.FU_type_0::SimdAdd                   0      0.00%     82.86% # Type of FU issued
system.cpu0.iq.FU_type_0::SimdAddAcc                0      0.00%     82.86% # Type of FU issued
system.cpu0.iq.FU_type_0::SimdAlu                   0      0.00%     82.86% # Type of FU issued
system.cpu0.iq.FU_type_0::SimdCmp                   0      0.00%     82.86% # Type of FU issued
system.cpu0.iq.FU_type_0::SimdCvt                   0      0.00%     82.86% # Type of FU issued
system.cpu0.iq.FU_type_0::SimdMisc                  0      0.00%     82.86% # Type of FU issued
system.cpu0.iq.FU_type_0::SimdMult                  0      0.00%     82.86% # Type of FU issued
system.cpu0.iq.FU_type_0::SimdMultAcc               0      0.00%     82.86% # Type of FU issued
system.cpu0.iq.FU_type_0::SimdShift                 0      0.00%     82.86% # Type of FU issued
system.cpu0.iq.FU_type_0::SimdShiftAcc              0      0.00%     82.86% # Type of FU issued
system.cpu0.iq.FU_type_0::SimdSqrt                  0      0.00%     82.86% # Type of FU issued
system.cpu0.iq.FU_type_0::SimdFloatAdd              0      0.00%     82.86% # Type of FU issued
system.cpu0.iq.FU_type_0::SimdFloatAlu              0      0.00%     82.86% # Type of FU issued
system.cpu0.iq.FU_type_0::SimdFloatCmp              0      0.00%     82.86% # Type of FU issued
system.cpu0.iq.FU_type_0::SimdFloatCvt              0      0.00%     82.86% # Type of FU issued
system.cpu0.iq.FU_type_0::SimdFloatDiv              0      0.00%     82.86% # Type of FU issued
system.cpu0.iq.FU_type_0::SimdFloatMisc             0      0.00%     82.86% # Type of FU issued
system.cpu0.iq.FU_type_0::SimdFloatMult             0      0.00%     82.86% # Type of FU issued
system.cpu0.iq.FU_type_0::SimdFloatMultAcc            0      0.00%     82.86% # Type of FU issued
system.cpu0.iq.FU_type_0::SimdFloatSqrt             0      0.00%     82.86% # Type of FU issued
system.cpu0.iq.FU_type_0::MemRead             1798224     16.13%     98.98% # Type of FU issued
system.cpu0.iq.FU_type_0::MemWrite             108494      0.97%     99.95% # Type of FU issued
system.cpu0.iq.FU_type_0::FloatMemRead           4991      0.04%    100.00% # Type of FU issued
system.cpu0.iq.FU_type_0::FloatMemWrite           163      0.00%    100.00% # Type of FU issued
system.cpu0.iq.FU_type_0::IprAccess                 0      0.00%    100.00% # Type of FU issued
system.cpu0.iq.FU_type_0::InstPrefetch              0      0.00%    100.00% # Type of FU issued
system.cpu0.iq.FU_type_0::total              11151338                       # Type of FU issued
system.cpu0.iq.rate                          0.365202                       # Inst issue rate
system.cpu0.iq.fu_busy_cnt                      31611                       # FU busy when requested
system.cpu0.iq.fu_busy_rate                  0.002835                       # FU busy rate (busy events/executed inst)
system.cpu0.iq.int_inst_queue_reads          52775661                       # Number of integer instruction queue reads
system.cpu0.iq.int_inst_queue_writes         24514008                       # Number of integer instruction queue writes
system.cpu0.iq.int_inst_queue_wakeup_accesses     10711120                       # Number of integer instruction queue wakeup accesses
system.cpu0.iq.fp_inst_queue_reads              68549                       # Number of floating instruction queue reads
system.cpu0.iq.fp_inst_queue_writes             67634                       # Number of floating instruction queue writes
system.cpu0.iq.fp_inst_queue_wakeup_accesses        29781                       # Number of floating instruction queue wakeup accesses
system.cpu0.iq.vec_inst_queue_reads                 0                       # Number of vector instruction queue reads
system.cpu0.iq.vec_inst_queue_writes                0                       # Number of vector instruction queue writes
system.cpu0.iq.vec_inst_queue_wakeup_accesses            0                       # Number of vector instruction queue wakeup accesses
system.cpu0.iq.int_alu_accesses              11113153                       # Number of integer alu accesses
system.cpu0.iq.fp_alu_accesses                  35265                       # Number of floating point alu accesses
system.cpu0.iq.vec_alu_accesses                     0                       # Number of vector alu accesses
system.cpu0.iew.lsq.thread0.forwLoads            9177                       # Number of loads that had data forwarded from stores
system.cpu0.iew.lsq.thread0.invAddrLoads            0                       # Number of loads ignored due to an invalid address
system.cpu0.iew.lsq.thread0.squashedLoads      1764618                       # Number of loads squashed
system.cpu0.iew.lsq.thread0.ignoredResponses          325                       # Number of memory responses ignored because the instruction is squashed
system.cpu0.iew.lsq.thread0.memOrderViolation           10                       # Number of memory ordering violations
system.cpu0.iew.lsq.thread0.squashedStores        95173                       # Number of stores squashed
system.cpu0.iew.lsq.thread0.invAddrSwpfs            0                       # Number of software prefetches ignored due to an invalid address
system.cpu0.iew.lsq.thread0.blockedLoads            0                       # Number of blocked loads due to partial load-store forwarding
system.cpu0.iew.lsq.thread0.rescheduledLoads           83                       # Number of loads that were rescheduled
system.cpu0.iew.lsq.thread0.cacheBlocked         5035                       # Number of times an access to memory failed due to the cache being blocked
system.cpu0.iew.iewIdleCycles                       0                       # Number of cycles IEW is idle
system.cpu0.iew.iewSquashCycles                141794                       # Number of cycles IEW is squashing
system.cpu0.iew.iewBlockCycles               21183698                       # Number of cycles IEW is blocking
system.cpu0.iew.iewUnblockCycles               443281                       # Number of cycles IEW is unblocking
system.cpu0.iew.iewDispatchedInsts           15392249                       # Number of instructions dispatched to IQ
system.cpu0.iew.iewDispSquashedInsts             7917                       # Number of squashed instructions skipped by dispatch
system.cpu0.iew.iewDispLoadInsts              2957450                       # Number of dispatched load instructions
system.cpu0.iew.iewDispStoreInsts              147465                       # Number of dispatched store instructions
system.cpu0.iew.iewDispNonSpecInsts              3185                       # Number of dispatched non-speculative instructions
system.cpu0.iew.iewIQFullEvents                 29147                       # Number of times the IQ has become full, causing a stall
system.cpu0.iew.iewLSQFullEvents                47325                       # Number of times the LSQ has become full, causing a stall
system.cpu0.iew.memOrderViolationEvents            10                       # Number of memory order violations
system.cpu0.iew.predictedTakenIncorrect         80778                       # Number of branches that were predicted taken incorrectly
system.cpu0.iew.predictedNotTakenIncorrect        75058                       # Number of branches that were predicted not taken incorrectly
system.cpu0.iew.branchMispredicts              155836                       # Number of branch mispredicts detected at execute
system.cpu0.iew.iewExecutedInsts             10953510                       # Number of executed instructions
system.cpu0.iew.iewExecLoadInsts              1718592                       # Number of load instructions executed
system.cpu0.iew.iewExecSquashedInsts           197834                       # Number of squashed instructions skipped in execute
system.cpu0.iew.exec_swp                            0                       # number of swp insts executed
system.cpu0.iew.exec_nop                            0                       # number of nop insts executed
system.cpu0.iew.exec_refs                     1819305                       # number of memory reference insts executed
system.cpu0.iew.exec_branches                 1370012                       # Number of branches executed
system.cpu0.iew.exec_stores                    100713                       # Number of stores executed
system.cpu0.iew.exec_rate                    0.358723                       # Inst execution rate
system.cpu0.iew.wb_sent                      10774794                       # cumulative count of insts sent to commit
system.cpu0.iew.wb_count                     10740901                       # cumulative count of insts written-back
system.cpu0.iew.wb_producers                  7914034                       # num instructions producing a value
system.cpu0.iew.wb_consumers                 12634412                       # num instructions consuming a value
system.cpu0.iew.wb_rate                      0.351761                       # insts written-back per cycle
system.cpu0.iew.wb_fanout                    0.626387                       # average fanout of values written-back
system.cpu0.commit.commitSquashedInsts        9190450                       # The number of squashed insts skipped by commit
system.cpu0.commit.branchMispredicts           141787                       # The number of times a branch was mispredicted
system.cpu0.commit.committed_per_cycle::samples     29202989                       # Number of insts commited each cycle
system.cpu0.commit.committed_per_cycle::mean     0.212404                       # Number of insts commited each cycle
system.cpu0.commit.committed_per_cycle::stdev     0.831245                       # Number of insts commited each cycle
system.cpu0.commit.committed_per_cycle::underflows            0      0.00%      0.00% # Number of insts commited each cycle
system.cpu0.commit.committed_per_cycle::0     26505971     90.76%     90.76% # Number of insts commited each cycle
system.cpu0.commit.committed_per_cycle::1      1237149      4.24%     95.00% # Number of insts commited each cycle
system.cpu0.commit.committed_per_cycle::2       299495      1.03%     96.03% # Number of insts commited each cycle
system.cpu0.commit.committed_per_cycle::3       821345      2.81%     98.84% # Number of insts commited each cycle
system.cpu0.commit.committed_per_cycle::4       132622      0.45%     99.29% # Number of insts commited each cycle
system.cpu0.commit.committed_per_cycle::5        83675      0.29%     99.58% # Number of insts commited each cycle
system.cpu0.commit.committed_per_cycle::6        10365      0.04%     99.62% # Number of insts commited each cycle
system.cpu0.commit.committed_per_cycle::7         7324      0.03%     99.64% # Number of insts commited each cycle
system.cpu0.commit.committed_per_cycle::8       105043      0.36%    100.00% # Number of insts commited each cycle
system.cpu0.commit.committed_per_cycle::overflows            0      0.00%    100.00% # Number of insts commited each cycle
system.cpu0.commit.committed_per_cycle::min_value            0                       # Number of insts commited each cycle
system.cpu0.commit.committed_per_cycle::max_value            8                       # Number of insts commited each cycle
system.cpu0.commit.committed_per_cycle::total     29202989                       # Number of insts commited each cycle
system.cpu0.commit.committedInsts             3104096                       # Number of instructions committed
system.cpu0.commit.committedOps               6202839                       # Number of ops (including micro ops) committed
system.cpu0.commit.swp_count                        0                       # Number of s/w prefetches committed
system.cpu0.commit.refs                       1245119                       # Number of memory references committed
system.cpu0.commit.loads                      1192827                       # Number of loads committed
system.cpu0.commit.membars                          0                       # Number of memory barriers committed
system.cpu0.commit.branches                   1136766                       # Number of branches committed
system.cpu0.commit.vec_insts                        0                       # Number of committed Vector instructions.
system.cpu0.commit.fp_insts                     20880                       # Number of committed floating point instructions.
system.cpu0.commit.int_insts                  6181771                       # Number of committed integer instructions.
system.cpu0.commit.function_calls                9225                       # Number of function calls committed.
system.cpu0.commit.op_class_0::No_OpClass         6236      0.10%      0.10% # Class of committed instruction
system.cpu0.commit.op_class_0::IntAlu         4918278     79.29%     79.39% # Class of committed instruction
system.cpu0.commit.op_class_0::IntMult            369      0.01%     79.40% # Class of committed instruction
system.cpu0.commit.op_class_0::IntDiv           14981      0.24%     79.64% # Class of committed instruction
system.cpu0.commit.op_class_0::FloatAdd         17856      0.29%     79.93% # Class of committed instruction
system.cpu0.commit.op_class_0::FloatCmp             0      0.00%     79.93% # Class of committed instruction
system.cpu0.commit.op_class_0::FloatCvt             0      0.00%     79.93% # Class of committed instruction
system.cpu0.commit.op_class_0::FloatMult            0      0.00%     79.93% # Class of committed instruction
system.cpu0.commit.op_class_0::FloatMultAcc            0      0.00%     79.93% # Class of committed instruction
system.cpu0.commit.op_class_0::FloatDiv             0      0.00%     79.93% # Class of committed instruction
system.cpu0.commit.op_class_0::FloatMisc            0      0.00%     79.93% # Class of committed instruction
system.cpu0.commit.op_class_0::FloatSqrt            0      0.00%     79.93% # Class of committed instruction
system.cpu0.commit.op_class_0::SimdAdd              0      0.00%     79.93% # Class of committed instruction
system.cpu0.commit.op_class_0::SimdAddAcc            0      0.00%     79.93% # Class of committed instruction
system.cpu0.commit.op_class_0::SimdAlu              0      0.00%     79.93% # Class of committed instruction
system.cpu0.commit.op_class_0::SimdCmp              0      0.00%     79.93% # Class of committed instruction
system.cpu0.commit.op_class_0::SimdCvt              0      0.00%     79.93% # Class of committed instruction
system.cpu0.commit.op_class_0::SimdMisc             0      0.00%     79.93% # Class of committed instruction
system.cpu0.commit.op_class_0::SimdMult             0      0.00%     79.93% # Class of committed instruction
system.cpu0.commit.op_class_0::SimdMultAcc            0      0.00%     79.93% # Class of committed instruction
system.cpu0.commit.op_class_0::SimdShift            0      0.00%     79.93% # Class of committed instruction
system.cpu0.commit.op_class_0::SimdShiftAcc            0      0.00%     79.93% # Class of committed instruction
system.cpu0.commit.op_class_0::SimdSqrt             0      0.00%     79.93% # Class of committed instruction
system.cpu0.commit.op_class_0::SimdFloatAdd            0      0.00%     79.93% # Class of committed instruction
system.cpu0.commit.op_class_0::SimdFloatAlu            0      0.00%     79.93% # Class of committed instruction
system.cpu0.commit.op_class_0::SimdFloatCmp            0      0.00%     79.93% # Class of committed instruction
system.cpu0.commit.op_class_0::SimdFloatCvt            0      0.00%     79.93% # Class of committed instruction
system.cpu0.commit.op_class_0::SimdFloatDiv            0      0.00%     79.93% # Class of committed instruction
system.cpu0.commit.op_class_0::SimdFloatMisc            0      0.00%     79.93% # Class of committed instruction
system.cpu0.commit.op_class_0::SimdFloatMult            0      0.00%     79.93% # Class of committed instruction
system.cpu0.commit.op_class_0::SimdFloatMultAcc            0      0.00%     79.93% # Class of committed instruction
system.cpu0.commit.op_class_0::SimdFloatSqrt            0      0.00%     79.93% # Class of committed instruction
system.cpu0.commit.op_class_0::MemRead        1189803     19.18%     99.11% # Class of committed instruction
system.cpu0.commit.op_class_0::MemWrite         52292      0.84%     99.95% # Class of committed instruction
system.cpu0.commit.op_class_0::FloatMemRead         3024      0.05%    100.00% # Class of committed instruction
system.cpu0.commit.op_class_0::FloatMemWrite            0      0.00%    100.00% # Class of committed instruction
system.cpu0.commit.op_class_0::IprAccess            0      0.00%    100.00% # Class of committed instruction
system.cpu0.commit.op_class_0::InstPrefetch            0      0.00%    100.00% # Class of committed instruction
system.cpu0.commit.op_class_0::total          6202839                       # Class of committed instruction
system.cpu0.commit.bw_lim_events               105043                       # number cycles where commit BW limit reached
system.cpu0.rob.rob_reads                    44491235                       # The number of ROB reads
system.cpu0.rob.rob_writes                   32083728                       # The number of ROB writes
system.cpu0.timesIdled                            526                       # Number of times that the entire CPU went into an idle state and unscheduled itself
system.cpu0.idleCycles                          37619                       # Total number of cycles that the CPU has spent unscheduled due to idling
system.cpu0.committedInsts                    3104096                       # Number of Instructions Simulated
system.cpu0.committedOps                      6202839                       # Number of Ops (including micro ops) Simulated
system.cpu0.cpi                              9.836902                       # CPI: Cycles Per Instruction
system.cpu0.cpi_total                        9.836902                       # CPI: Total CPI of All Threads
system.cpu0.ipc                              0.101658                       # IPC: Instructions Per Cycle
system.cpu0.ipc_total                        0.101658                       # IPC: Total IPC of All Threads
system.cpu0.int_regfile_reads                10940669                       # number of integer regfile reads
system.cpu0.int_regfile_writes                9280322                       # number of integer regfile writes
system.cpu0.fp_regfile_reads                    53430                       # number of floating regfile reads
system.cpu0.fp_regfile_writes                   26685                       # number of floating regfile writes
system.cpu0.cc_regfile_reads                  7286618                       # number of cc regfile reads
system.cpu0.cc_regfile_writes                 3016968                       # number of cc regfile writes
system.cpu0.misc_regfile_reads                5875059                       # number of misc regfile reads
system.cpu0.dcache.tags.pwrStateResidencyTicks::UNDEFINED  15267344125                       # Cumulative time (in ticks) in various power states
system.cpu0.dcache.tags.replacements           641947                       # number of replacements
system.cpu0.dcache.tags.tagsinuse                 512                       # Cycle average of tags in use
system.cpu0.dcache.tags.total_refs             668782                       # Total number of references to valid blocks.
system.cpu0.dcache.tags.sampled_refs           641947                       # Sample count of references to valid blocks.
system.cpu0.dcache.tags.avg_refs             1.041803                       # Average number of references to valid blocks.
system.cpu0.dcache.tags.warmup_cycle                0                       # Cycle when the warmup percentage was hit.
system.cpu0.dcache.tags.occ_blocks::cpu0.data          512                       # Average occupied blocks per requestor
system.cpu0.dcache.tags.occ_percent::cpu0.data            1                       # Average percentage of cache occupancy
system.cpu0.dcache.tags.occ_percent::total            1                       # Average percentage of cache occupancy
system.cpu0.dcache.tags.occ_task_id_blocks::1024          512                       # Occupied blocks per task id
system.cpu0.dcache.tags.age_task_id_blocks_1024::0          188                       # Occupied blocks per task id
system.cpu0.dcache.tags.age_task_id_blocks_1024::1          324                       # Occupied blocks per task id
system.cpu0.dcache.tags.occ_task_id_percent::1024            1                       # Percentage of cache occupancy per task id
system.cpu0.dcache.tags.tag_accesses          7645195                       # Number of tag accesses
system.cpu0.dcache.tags.data_accesses         7645195                       # Number of data accesses
system.cpu0.dcache.pwrStateResidencyTicks::UNDEFINED  15267344125                       # Cumulative time (in ticks) in various power states
system.cpu0.dcache.ReadReq_hits::cpu0.data       618147                       # number of ReadReq hits
system.cpu0.dcache.ReadReq_hits::total         618147                       # number of ReadReq hits
system.cpu0.dcache.WriteReq_hits::cpu0.data        49953                       # number of WriteReq hits
system.cpu0.dcache.WriteReq_hits::total         49953                       # number of WriteReq hits
system.cpu0.dcache.demand_hits::cpu0.data       668100                       # number of demand (read+write) hits
system.cpu0.dcache.demand_hits::total          668100                       # number of demand (read+write) hits
system.cpu0.dcache.overall_hits::cpu0.data       668100                       # number of overall hits
system.cpu0.dcache.overall_hits::total         668100                       # number of overall hits
system.cpu0.dcache.ReadReq_misses::cpu0.data      1080373                       # number of ReadReq misses
system.cpu0.dcache.ReadReq_misses::total      1080373                       # number of ReadReq misses
system.cpu0.dcache.WriteReq_misses::cpu0.data         2339                       # number of WriteReq misses
system.cpu0.dcache.WriteReq_misses::total         2339                       # number of WriteReq misses
system.cpu0.dcache.demand_misses::cpu0.data      1082712                       # number of demand (read+write) misses
system.cpu0.dcache.demand_misses::total       1082712                       # number of demand (read+write) misses
system.cpu0.dcache.overall_misses::cpu0.data      1082712                       # number of overall misses
system.cpu0.dcache.overall_misses::total      1082712                       # number of overall misses
system.cpu0.dcache.ReadReq_miss_latency::cpu0.data  32195994500                       # number of ReadReq miss cycles
system.cpu0.dcache.ReadReq_miss_latency::total  32195994500                       # number of ReadReq miss cycles
system.cpu0.dcache.WriteReq_miss_latency::cpu0.data     83551490                       # number of WriteReq miss cycles
system.cpu0.dcache.WriteReq_miss_latency::total     83551490                       # number of WriteReq miss cycles
system.cpu0.dcache.demand_miss_latency::cpu0.data  32279545990                       # number of demand (read+write) miss cycles
system.cpu0.dcache.demand_miss_latency::total  32279545990                       # number of demand (read+write) miss cycles
system.cpu0.dcache.overall_miss_latency::cpu0.data  32279545990                       # number of overall miss cycles
system.cpu0.dcache.overall_miss_latency::total  32279545990                       # number of overall miss cycles
system.cpu0.dcache.ReadReq_accesses::cpu0.data      1698520                       # number of ReadReq accesses(hits+misses)
system.cpu0.dcache.ReadReq_accesses::total      1698520                       # number of ReadReq accesses(hits+misses)
system.cpu0.dcache.WriteReq_accesses::cpu0.data        52292                       # number of WriteReq accesses(hits+misses)
system.cpu0.dcache.WriteReq_accesses::total        52292                       # number of WriteReq accesses(hits+misses)
system.cpu0.dcache.demand_accesses::cpu0.data      1750812                       # number of demand (read+write) accesses
system.cpu0.dcache.demand_accesses::total      1750812                       # number of demand (read+write) accesses
system.cpu0.dcache.overall_accesses::cpu0.data      1750812                       # number of overall (read+write) accesses
system.cpu0.dcache.overall_accesses::total      1750812                       # number of overall (read+write) accesses
system.cpu0.dcache.ReadReq_miss_rate::cpu0.data     0.636067                       # miss rate for ReadReq accesses
system.cpu0.dcache.ReadReq_miss_rate::total     0.636067                       # miss rate for ReadReq accesses
system.cpu0.dcache.WriteReq_miss_rate::cpu0.data     0.044730                       # miss rate for WriteReq accesses
system.cpu0.dcache.WriteReq_miss_rate::total     0.044730                       # miss rate for WriteReq accesses
system.cpu0.dcache.demand_miss_rate::cpu0.data     0.618406                       # miss rate for demand accesses
system.cpu0.dcache.demand_miss_rate::total     0.618406                       # miss rate for demand accesses
system.cpu0.dcache.overall_miss_rate::cpu0.data     0.618406                       # miss rate for overall accesses
system.cpu0.dcache.overall_miss_rate::total     0.618406                       # miss rate for overall accesses
system.cpu0.dcache.ReadReq_avg_miss_latency::cpu0.data 29800.813700                       # average ReadReq miss latency
[...]
system.l2.overall_miss_latency::total     11385462000                       # number of overall miss cycles
system.l2.WritebackDirty_accesses::writebacks        11827                       # number of WritebackDirty accesses(hits+misses)
system.l2.WritebackDirty_accesses::total        11827                       # number of WritebackDirty accesses(hits+misses)
system.l2.WritebackClean_accesses::writebacks           10                       # number of WritebackClean accesses(hits+misses)
system.l2.WritebackClean_accesses::total           10                       # number of WritebackClean accesses(hits+misses)
system.l2.ReadExReq_accesses::cpu0.data          2327                       # number of ReadExReq accesses(hits+misses)
system.l2.ReadExReq_accesses::total              2327                       # number of ReadExReq accesses(hits+misses)
system.l2.ReadCleanReq_accesses::cpu0.inst           10                       # number of ReadCleanReq accesses(hits+misses)
system.l2.ReadCleanReq_accesses::total             10                       # number of ReadCleanReq accesses(hits+misses)
system.l2.ReadSharedReq_accesses::cpu0.data       639619                       # number of ReadSharedReq accesses(hits+misses)
system.l2.ReadSharedReq_accesses::total        639619                       # number of ReadSharedReq accesses(hits+misses)
system.l2.demand_accesses::cpu0.inst               10                       # number of demand (read+write) accesses
system.l2.demand_accesses::cpu0.data           641946                       # number of demand (read+write) accesses
system.l2.demand_accesses::total               641956                       # number of demand (read+write) accesses
system.l2.overall_accesses::cpu0.inst              10                       # number of overall (read+write) accesses
system.l2.overall_accesses::cpu0.data          641946                       # number of overall (read+write) accesses
system.l2.overall_accesses::total              641956                       # number of overall (read+write) accesses
system.l2.ReadExReq_miss_rate::cpu0.data     0.214009                       # miss rate for ReadExReq accesses
system.l2.ReadExReq_miss_rate::total         0.214009                       # miss rate for ReadExReq accesses
system.l2.ReadSharedReq_miss_rate::cpu0.data     0.181471                       # miss rate for ReadSharedReq accesses
system.l2.ReadSharedReq_miss_rate::total     0.181471                       # miss rate for ReadSharedReq accesses
system.l2.demand_miss_rate::cpu0.data        0.181588                       # miss rate for demand accesses
system.l2.demand_miss_rate::total            0.181586                       # miss rate for demand accesses
system.l2.overall_miss_rate::cpu0.data       0.181588                       # miss rate for overall accesses
system.l2.overall_miss_rate::total           0.181586                       # miss rate for overall accesses
system.l2.ReadExReq_avg_miss_latency::cpu0.data 115677.710843                       # average ReadExReq miss latency
system.l2.ReadExReq_avg_miss_latency::total 115677.710843                       # average ReadExReq miss latency
system.l2.ReadSharedReq_avg_miss_latency::cpu0.data 97593.342925                       # average ReadSharedReq miss latency
system.l2.ReadSharedReq_avg_miss_latency::total 97593.342925                       # average ReadSharedReq miss latency
system.l2.demand_avg_miss_latency::cpu0.data 97670.601355                       # average overall miss latency
system.l2.demand_avg_miss_latency::total 97670.601355                       # average overall miss latency
system.l2.overall_avg_miss_latency::cpu0.data 97670.601355                       # average overall miss latency
system.l2.overall_avg_miss_latency::total 97670.601355                       # average overall miss latency
system.l2.blocked_cycles::no_mshrs                  0                       # number of cycles access was blocked
system.l2.blocked_cycles::no_targets                0                       # number of cycles access was blocked
system.l2.blocked::no_mshrs                         0                       # number of cycles access was blocked
system.l2.blocked::no_targets                       0                       # number of cycles access was blocked
system.l2.avg_blocked_cycles::no_mshrs            nan                       # average number of cycles each access was blocked
system.l2.avg_blocked_cycles::no_targets          nan                       # average number of cycles each access was blocked
system.l2.writebacks::writebacks                  579                       # number of writebacks
system.l2.writebacks::total                       579                       # number of writebacks
system.l2.ReadExReq_mshr_misses::cpu0.data          498                       # number of ReadExReq MSHR misses
system.l2.ReadExReq_mshr_misses::total            498                       # number of ReadExReq MSHR misses
system.l2.ReadSharedReq_mshr_misses::cpu0.data       116072                       # number of ReadSharedReq MSHR misses
system.l2.ReadSharedReq_mshr_misses::total       116072                       # number of ReadSharedReq MSHR misses
system.l2.demand_mshr_misses::cpu0.data        116570                       # number of demand (read+write) MSHR misses
system.l2.demand_mshr_misses::total            116570                       # number of demand (read+write) MSHR misses
system.l2.overall_mshr_misses::cpu0.data       116570                       # number of overall MSHR misses
system.l2.overall_mshr_misses::total           116570                       # number of overall MSHR misses
system.l2.ReadExReq_mshr_miss_latency::cpu0.data     52627500                       # number of ReadExReq MSHR miss cycles
system.l2.ReadExReq_mshr_miss_latency::total     52627500                       # number of ReadExReq MSHR miss cycles
system.l2.ReadSharedReq_mshr_miss_latency::cpu0.data  10167134500                       # number of ReadSharedReq MSHR miss cycles
system.l2.ReadSharedReq_mshr_miss_latency::total  10167134500                       # number of ReadSharedReq MSHR miss cycles
system.l2.demand_mshr_miss_latency::cpu0.data  10219762000                       # number of demand (read+write) MSHR miss cycles
system.l2.demand_mshr_miss_latency::total  10219762000                       # number of demand (read+write) MSHR miss cycles
system.l2.overall_mshr_miss_latency::cpu0.data  10219762000                       # number of overall MSHR miss cycles
system.l2.overall_mshr_miss_latency::total  10219762000                       # number of overall MSHR miss cycles
system.l2.ReadExReq_mshr_miss_rate::cpu0.data     0.214009                       # mshr miss rate for ReadExReq accesses
system.l2.ReadExReq_mshr_miss_rate::total     0.214009                       # mshr miss rate for ReadExReq accesses
system.l2.ReadSharedReq_mshr_miss_rate::cpu0.data     0.181471                       # mshr miss rate for ReadSharedReq accesses
system.l2.ReadSharedReq_mshr_miss_rate::total     0.181471                       # mshr miss rate for ReadSharedReq accesses
system.l2.demand_mshr_miss_rate::cpu0.data     0.181588                       # mshr miss rate for demand accesses
system.l2.demand_mshr_miss_rate::total       0.181586                       # mshr miss rate for demand accesses
system.l2.overall_mshr_miss_rate::cpu0.data     0.181588                       # mshr miss rate for overall accesses
system.l2.overall_mshr_miss_rate::total      0.181586                       # mshr miss rate for overall accesses
system.l2.ReadExReq_avg_mshr_miss_latency::cpu0.data 105677.710843                       # average ReadExReq mshr miss latency
system.l2.ReadExReq_avg_mshr_miss_latency::total 105677.710843                       # average ReadExReq mshr miss latency
system.l2.ReadSharedReq_avg_mshr_miss_latency::cpu0.data 87593.342925                       # average ReadSharedReq mshr miss latency
system.l2.ReadSharedReq_avg_mshr_miss_latency::total 87593.342925                       # average ReadSharedReq mshr miss latency
system.l2.demand_avg_mshr_miss_latency::cpu0.data 87670.601355                       # average overall mshr miss latency
system.l2.demand_avg_mshr_miss_latency::total 87670.601355                       # average overall mshr miss latency
system.l2.overall_avg_mshr_miss_latency::cpu0.data 87670.601355                       # average overall mshr miss latency
system.l2.overall_avg_mshr_miss_latency::total 87670.601355                       # average overall mshr miss latency
system.membus.snoop_filter.tot_requests        233139                       # Total number of requests made to the snoop filter.
system.membus.snoop_filter.hit_single_requests       116570                       # Number of requests hitting in the snoop filter with a single holder of the requested data.
system.membus.snoop_filter.hit_multi_requests            0                       # Number of requests hitting in the snoop filter with multiple (>1) holders of the requested data.
system.membus.snoop_filter.tot_snoops               0                       # Total number of snoops made to the snoop filter.
system.membus.snoop_filter.hit_single_snoops            0                       # Number of snoops hitting in the snoop filter with a single holder of the requested data.
system.membus.snoop_filter.hit_multi_snoops            0                       # Number of snoops hitting in the snoop filter with multiple (>1) holders of the requested data.
system.membus.pwrStateResidencyTicks::UNDEFINED  15267344125                       # Cumulative time (in ticks) in various power states
system.membus.trans_dist::ReadResp             116072                       # Transaction distribution
system.membus.trans_dist::WritebackDirty          579                       # Transaction distribution
system.membus.trans_dist::CleanEvict           115990                       # Transaction distribution
system.membus.trans_dist::ReadExReq               498                       # Transaction distribution
system.membus.trans_dist::ReadExResp              498                       # Transaction distribution
system.membus.trans_dist::ReadSharedReq        116072                       # Transaction distribution
system.membus.pkt_count_system.l2.mem_side::system.mem_ctrls.port       349709                       # Packet count per connected master and slave (bytes)
system.membus.pkt_count_system.l2.mem_side::total       349709                       # Packet count per connected master and slave (bytes)
system.membus.pkt_count::total                 349709                       # Packet count per connected master and slave (bytes)
system.membus.pkt_size_system.l2.mem_side::system.mem_ctrls.port      7497536                       # Cumulative packet size per connected master and slave (bytes)
system.membus.pkt_size_system.l2.mem_side::total      7497536                       # Cumulative packet size per connected master and slave (bytes)
system.membus.pkt_size::total                 7497536                       # Cumulative packet size per connected master and slave (bytes)
system.membus.snoops                                0                       # Total snoops (count)
system.membus.snoopTraffic                          0                       # Total snoop traffic (bytes)
system.membus.snoop_fanout::samples            116570                       # Request fanout histogram
system.membus.snoop_fanout::mean                    0                       # Request fanout histogram
system.membus.snoop_fanout::stdev                   0                       # Request fanout histogram
system.membus.snoop_fanout::underflows              0      0.00%      0.00% # Request fanout histogram
system.membus.snoop_fanout::0                  116570    100.00%    100.00% # Request fanout histogram
system.membus.snoop_fanout::1                       0      0.00%    100.00% # Request fanout histogram
system.membus.snoop_fanout::overflows               0      0.00%    100.00% # Request fanout histogram
system.membus.snoop_fanout::min_value               0                       # Request fanout histogram
system.membus.snoop_fanout::max_value               0                       # Request fanout histogram
system.membus.snoop_fanout::total              116570                       # Request fanout histogram
system.membus.reqLayer12.occupancy          271287000                       # Layer occupancy (ticks)
system.membus.reqLayer12.utilization              1.8                       # Layer utilization (%)
system.membus.respLayer1.occupancy          639368250                       # Layer occupancy (ticks)
system.membus.respLayer1.utilization              4.2                       # Layer utilization (%)
system.tol2bus.snoop_filter.tot_requests      1283913                       # Total number of requests made to the snoop filter.
system.tol2bus.snoop_filter.hit_single_requests       641955                       # Number of requests hitting in the snoop filter with a single holder of the requested data.
system.tol2bus.snoop_filter.hit_multi_requests         1254                       # Number of requests hitting in the snoop filter with multiple (>1) holders of the requested data.
system.tol2bus.snoop_filter.tot_snoops              4                       # Total number of snoops made to the snoop filter.
system.tol2bus.snoop_filter.hit_single_snoops            4                       # Number of snoops hitting in the snoop filter with a single holder of the requested data.
system.tol2bus.snoop_filter.hit_multi_snoops            0                       # Number of snoops hitting in the snoop filter with multiple (>1) holders of the requested data.
system.tol2bus.pwrStateResidencyTicks::UNDEFINED  15267344125                       # Cumulative time (in ticks) in various power states
system.tol2bus.trans_dist::ReadResp            639630                       # Transaction distribution
system.tol2bus.trans_dist::WritebackDirty        12406                       # Transaction distribution
system.tol2bus.trans_dist::WritebackClean           10                       # Transaction distribution
system.tol2bus.trans_dist::CleanEvict          746114                       # Transaction distribution
system.tol2bus.trans_dist::ReadExReq             2327                       # Transaction distribution
system.tol2bus.trans_dist::ReadExResp            2327                       # Transaction distribution
system.tol2bus.trans_dist::ReadCleanReq            10                       # Transaction distribution
system.tol2bus.trans_dist::ReadSharedReq       639619                       # Transaction distribution
system.tol2bus.pkt_count_system.cpu0.icache.mem_side::system.l2.cpu_side           30                       # Packet count per connected master and slave (bytes)
system.tol2bus.pkt_count_system.cpu0.dcache.mem_side::system.l2.cpu_side      1925840                       # Packet count per connected master and slave (bytes)
system.tol2bus.pkt_count::total               1925870                       # Packet count per connected master and slave (bytes)
system.tol2bus.pkt_size_system.cpu0.icache.mem_side::system.l2.cpu_side         1280                       # Cumulative packet size per connected master and slave (bytes)
system.tol2bus.pkt_size_system.cpu0.dcache.mem_side::system.l2.cpu_side     41841536                       # Cumulative packet size per connected master and slave (bytes)
system.tol2bus.pkt_size::total               41842816                       # Cumulative packet size per connected master and slave (bytes)
system.tol2bus.snoops                          116573                       # Total snoops (count)
system.tol2bus.snoopTraffic                     37056                       # Total snoop traffic (bytes)
system.tol2bus.snoop_fanout::samples           758529                       # Request fanout histogram
system.tol2bus.snoop_fanout::mean            0.001656                       # Request fanout histogram
system.tol2bus.snoop_fanout::stdev           0.040658                       # Request fanout histogram
system.tol2bus.snoop_fanout::underflows             0      0.00%      0.00% # Request fanout histogram
system.tol2bus.snoop_fanout::0                 757273     99.83%     99.83% # Request fanout histogram
system.tol2bus.snoop_fanout::1                   1256      0.17%    100.00% # Request fanout histogram
system.tol2bus.snoop_fanout::2                      0      0.00%    100.00% # Request fanout histogram
system.tol2bus.snoop_fanout::3                      0      0.00%    100.00% # Request fanout histogram
system.tol2bus.snoop_fanout::4                      0      0.00%    100.00% # Request fanout histogram
system.tol2bus.snoop_fanout::5                      0      0.00%    100.00% # Request fanout histogram
system.tol2bus.snoop_fanout::6                      0      0.00%    100.00% # Request fanout histogram
system.tol2bus.snoop_fanout::7                      0      0.00%    100.00% # Request fanout histogram
system.tol2bus.snoop_fanout::8                      0      0.00%    100.00% # Request fanout histogram
system.tol2bus.snoop_fanout::9                      0      0.00%    100.00% # Request fanout histogram
system.tol2bus.snoop_fanout::10                     0      0.00%    100.00% # Request fanout histogram
system.tol2bus.snoop_fanout::11                     0      0.00%    100.00% # Request fanout histogram
system.tol2bus.snoop_fanout::12                     0      0.00%    100.00% # Request fanout histogram
system.tol2bus.snoop_fanout::13                     0      0.00%    100.00% # Request fanout histogram
system.tol2bus.snoop_fanout::14                     0      0.00%    100.00% # Request fanout histogram
system.tol2bus.snoop_fanout::15                     0      0.00%    100.00% # Request fanout histogram
system.tol2bus.snoop_fanout::16                     0      0.00%    100.00% # Request fanout histogram
system.tol2bus.snoop_fanout::17                     0      0.00%    100.00% # Request fanout histogram
system.tol2bus.snoop_fanout::18                     0      0.00%    100.00% # Request fanout histogram
system.tol2bus.snoop_fanout::19                     0      0.00%    100.00% # Request fanout histogram
system.tol2bus.snoop_fanout::20                     0      0.00%    100.00% # Request fanout histogram
system.tol2bus.snoop_fanout::21                     0      0.00%    100.00% # Request fanout histogram
system.tol2bus.snoop_fanout::22                     0      0.00%    100.00% # Request fanout histogram
system.tol2bus.snoop_fanout::23                     0      0.00%    100.00% # Request fanout histogram
system.tol2bus.snoop_fanout::24                     0      0.00%    100.00% # Request fanout histogram
system.tol2bus.snoop_fanout::overflows              0      0.00%    100.00% # Request fanout histogram
system.tol2bus.snoop_fanout::min_value              0                       # Request fanout histogram
system.tol2bus.snoop_fanout::max_value              1                       # Request fanout histogram
system.tol2bus.snoop_fanout::total             758529                       # Request fanout histogram
system.tol2bus.reqLayer0.occupancy          653793500                       # Layer occupancy (ticks)
system.tol2bus.reqLayer0.utilization              4.3                       # Layer utilization (%)
system.tol2bus.respLayer0.occupancy             15000                       # Layer occupancy (ticks)
system.tol2bus.respLayer0.utilization             0.0                       # Layer utilization (%)
system.tol2bus.respLayer1.occupancy         962920500                       # Layer occupancy (ticks)
system.tol2bus.respLayer1.utilization             6.3                       # Layer utilization (%)

---------- End Simulation Statistics   ----------
