
---------- Begin Simulation Statistics ----------
sim_seconds                                  0.015267                       # Number of seconds simulated
sim_ticks                                 15267344125                       # Number of ticks simulated
final_tick                               4824480743500                       # Number of ticks from beginning of simulation (restored from checkpoints and never reset)
sim_freq                                 1000000000000                       # Frequency of simulated ticks
host_inst_rate                              123278676                       # Simulator instruction rate (inst/s)
host_op_rate                                228745367                       # Simulator op (including micro ops) rate (op/s)
host_tick_rate                              331455399                       # Simulator tick rate (ticks/s)
host_mem_usage                                1248976                       # Number of bytes of host memory used
host_seconds                                    46.06                       # Real time elapsed on the host
sim_insts                                  5678402819                       # Number of instructions simulated
sim_ops                                   10536360581                       # Number of ops (including micro ops) simulated
system.voltage_domain.voltage                       1                       # Voltage in Volts
system.clk_domain.clock                          1000                       # Clock period in ticks
system.mem_ctrls.pwrStateResidencyTicks::UNDEFINED  15267344125                       # Cumulative time (in ticks) in various power states
system.mem_ctrls.bytes_read::cpu0.data       12529472                       # Number of bytes read from this memory
system.mem_ctrls.bytes_read::total           12529472                       # Number of bytes read from this memory
system.mem_ctrls.bytes_written::writebacks        31168                       # Number of bytes written to this memory
system.mem_ctrls.bytes_written::total           31168                       # Number of bytes written to this memory
system.mem_ctrls.num_reads::cpu0.data          195773                       # Number of read requests responded to by this memory
system.mem_ctrls.num_reads::total              195773                       # Number of read requests responded to by this memory
system.mem_ctrls.num_writes::writebacks           487                       # Number of write requests responded to by this memory
system.mem_ctrls.num_writes::total                487                       # Number of write requests responded to by this memory
system.mem_ctrls.bw_read::cpu0.data         820671356                       # Total read bandwidth from this memory (bytes/s)
system.mem_ctrls.bw_read::total             820671356                       # Total read bandwidth from this memory (bytes/s)
system.mem_ctrls.bw_write::writebacks         2041481                       # Write bandwidth from this memory (bytes/s)
system.mem_ctrls.bw_write::total              2041481                       # Write bandwidth from this memory (bytes/s)
system.mem_ctrls.bw_total::writebacks         2041481                       # Total bandwidth to/from this memory (bytes/s)
system.mem_ctrls.bw_total::cpu0.data        820671356                       # Total bandwidth to/from this memory (bytes/s)
system.mem_ctrls.bw_total::total            822712837                       # Total bandwidth to/from this memory (bytes/s)
system.mem_ctrls.readReqs                      195774                       # Number of read requests accepted
system.mem_ctrls.writeReqs                        487                       # Number of write requests accepted
system.mem_ctrls.readBursts                    195774                       # Number of DRAM read bursts, including those serviced by the write queue
system.mem_ctrls.writeBursts                      487                       # Number of DRAM write bursts, including those merged in the write queue
system.mem_ctrls.bytesReadDRAM               12525824                       # Total number of bytes read from DRAM
system.mem_ctrls.bytesReadWrQ                    3712                       # Total number of bytes read from write queue
system.mem_ctrls.bytesWritten                   31744                       # Total number of bytes written to DRAM
system.mem_ctrls.bytesReadSys                12529536                       # Total read bytes from the system interface side
system.mem_ctrls.bytesWrittenSys                31168                       # Total written bytes from the system interface side
system.mem_ctrls.servicedByWrQ                     58                       # Number of DRAM read bursts serviced by the write queue
system.mem_ctrls.mergedWrBursts                     2                       # Number of DRAM write bursts merged with an existing one
system.mem_ctrls.neitherReadNorWriteReqs            0                       # Number of requests that are neither read nor write
system.mem_ctrls.perBankRdBursts::0             12048                       # Per bank write bursts
system.mem_ctrls.perBankRdBursts::1             12352                       # Per bank write bursts
system.mem_ctrls.perBankRdBursts::2             12435                       # Per bank write bursts
system.mem_ctrls.perBankRdBursts::3             12163                       # Per bank write bursts
system.mem_ctrls.perBankRdBursts::4             12221                       # Per bank write bursts
system.mem_ctrls.perBankRdBursts::5             11865                       # Per bank write bursts
system.mem_ctrls.perBankRdBursts::6             11702                       # Per bank write bursts
system.mem_ctrls.perBankRdBursts::7             12084                       # Per bank write bursts
system.mem_ctrls.perBankRdBursts::8             12002                       # Per bank write bursts
system.mem_ctrls.perBankRdBursts::9             12163                       # Per bank write bursts
system.mem_ctrls.perBankRdBursts::10            11796                       # Per bank write bursts
system.mem_ctrls.perBankRdBursts::11            12102                       # Per bank write bursts
system.mem_ctrls.perBankRdBursts::12            12991                       # Per bank write bursts
system.mem_ctrls.perBankRdBursts::13            12658                       # Per bank write bursts
system.mem_ctrls.perBankRdBursts::14            12646                       # Per bank write bursts
system.mem_ctrls.perBankRdBursts::15            12488                       # Per bank write bursts
system.mem_ctrls.perBankWrBursts::0                 0                       # Per bank write bursts
system.mem_ctrls.perBankWrBursts::1                 3                       # Per bank write bursts
system.mem_ctrls.perBankWrBursts::2               123                       # Per bank write bursts
system.mem_ctrls.perBankWrBursts::3               128                       # Per bank write bursts
system.mem_ctrls.perBankWrBursts::4                53                       # Per bank write bursts
system.mem_ctrls.perBankWrBursts::5                 0                       # Per bank write bursts
system.mem_ctrls.perBankWrBursts::6                 0                       # Per bank write bursts
system.mem_ctrls.perBankWrBursts::7                 0                       # Per bank write bursts
system.mem_ctrls.perBankWrBursts::8                 0                       # Per bank write bursts
system.mem_ctrls.perBankWrBursts::9                 0                       # Per bank write bursts
system.mem_ctrls.perBankWrBursts::10                0                       # Per bank write bursts
system.mem_ctrls.perBankWrBursts::11               13                       # Per bank write bursts
system.mem_ctrls.perBankWrBursts::12              148                       # Per bank write bursts
system.mem_ctrls.perBankWrBursts::13               28                       # Per bank write bursts
system.mem_ctrls.perBankWrBursts::14                0                       # Per bank write bursts
system.mem_ctrls.perBankWrBursts::15                0                       # Per bank write bursts
system.mem_ctrls.numRdRetry                         0                       # Number of times read queue was full causing retry
system.mem_ctrls.numWrRetry                         0                       # Number of times write queue was full causing retry
system.mem_ctrls.totGap                   15267393000                       # Total gap between requests
system.mem_ctrls.readPktSize::0                     0                       # Read request sizes (log2)
system.mem_ctrls.readPktSize::1                     0                       # Read request sizes (log2)
system.mem_ctrls.readPktSize::2                     0                       # Read request sizes (log2)
system.mem_ctrls.readPktSize::3                     0                       # Read request sizes (log2)
system.mem_ctrls.readPktSize::4                     0                       # Read request sizes (log2)
system.mem_ctrls.readPktSize::5                     0                       # Read request sizes (log2)
system.mem_ctrls.readPktSize::6                195774                       # Read request sizes (log2)
system.mem_ctrls.writePktSize::0                    0                       # Write request sizes (log2)
system.mem_ctrls.writePktSize::1                    0                       # Write request sizes (log2)
system.mem_ctrls.writePktSize::2                    0                       # Write request sizes (log2)
system.mem_ctrls.writePktSize::3                    0                       # Write request sizes (log2)
system.mem_ctrls.writePktSize::4                    0                       # Write request sizes (log2)
system.mem_ctrls.writePktSize::5                    0                       # Write request sizes (log2)
system.mem_ctrls.writePktSize::6                  487                       # Write request sizes (log2)
system.mem_ctrls.rdQLenPdf::0                  146751                       # What read queue length does an incoming req see
system.mem_ctrls.rdQLenPdf::1                   45568                       # What read queue length does an incoming req see
system.mem_ctrls.rdQLenPdf::2                    3344                       # What read queue length does an incoming req see
system.mem_ctrls.rdQLenPdf::3                      53                       # What read queue length does an incoming req see
system.mem_ctrls.rdQLenPdf::4                       0                       # What read queue length does an incoming req see
system.mem_ctrls.rdQLenPdf::5                       0                       # What read queue length does an incoming req see
system.mem_ctrls.rdQLenPdf::6                       0                       # What read queue length does an incoming req see
system.mem_ctrls.rdQLenPdf::7                       0                       # What read queue length does an incoming req see
system.mem_ctrls.rdQLenPdf::8                       0                       # What read queue length does an incoming req see
system.mem_ctrls.rdQLenPdf::9                       0                       # What read queue length does an incoming req see
system.mem_ctrls.rdQLenPdf::10                      0                       # What read queue length does an incoming req see
system.mem_ctrls.rdQLenPdf::11                      0                       # What read queue length does an incoming req see
system.mem_ctrls.rdQLenPdf::12                      0                       # What read queue length does an incoming req see
system.mem_ctrls.rdQLenPdf::13                      0                       # What read queue length does an incoming req see
system.mem_ctrls.rdQLenPdf::14                      0                       # What read queue length does an incoming req see
system.mem_ctrls.rdQLenPdf::15                      0                       # What read queue length does an incoming req see
system.mem_ctrls.rdQLenPdf::16                      0                       # What read queue length does an incoming req see
system.mem_ctrls.rdQLenPdf::17                      0                       # What read queue length does an incoming req see
system.mem_ctrls.rdQLenPdf::18                      0                       # What read queue length does an incoming req see
system.mem_ctrls.rdQLenPdf::19                      0                       # What read queue length does an incoming req see
system.mem_ctrls.rdQLenPdf::20                      0                       # What read queue length does an incoming req see
system.mem_ctrls.rdQLenPdf::21                      0                       # What read queue length does an incoming req see
system.mem_ctrls.rdQLenPdf::22                      0                       # What read queue length does an incoming req see
system.mem_ctrls.rdQLenPdf::23                      0                       # What read queue length does an incoming req see
system.mem_ctrls.rdQLenPdf::24                      0                       # What read queue length does an incoming req see
system.mem_ctrls.rdQLenPdf::25                      0                       # What read queue length does an incoming req see
system.mem_ctrls.rdQLenPdf::26                      0                       # What read queue length does an incoming req see
system.mem_ctrls.rdQLenPdf::27                      0                       # What read queue length does an incoming req see
system.mem_ctrls.rdQLenPdf::28                      0                       # What read queue length does an incoming req see
system.mem_ctrls.rdQLenPdf::29                      0                       # What read queue length does an incoming req see
system.mem_ctrls.rdQLenPdf::30                      0                       # What read queue length does an incoming req see
system.mem_ctrls.rdQLenPdf::31                      0                       # What read queue length does an incoming req see
system.mem_ctrls.wrQLenPdf::0                       0                       # What write queue length does an incoming req see
system.mem_ctrls.wrQLenPdf::1                       0                       # What write queue length does an incoming req see
system.mem_ctrls.wrQLenPdf::2                       0                       # What write queue length does an incoming req see
system.mem_ctrls.wrQLenPdf::3                       0                       # What write queue length does an incoming req see
system.mem_ctrls.wrQLenPdf::4                       0                       # What write queue length does an incoming req see
system.mem_ctrls.wrQLenPdf::5                       0                       # What write queue length does an incoming req see
system.mem_ctrls.wrQLenPdf::6                       0                       # What write queue length does an incoming req see
system.mem_ctrls.wrQLenPdf::7                       0                       # What write queue length does an incoming req see
system.mem_ctrls.wrQLenPdf::8                       0                       # What write queue length does an incoming req see
system.mem_ctrls.wrQLenPdf::9                       0                       # What write queue length does an incoming req see
system.mem_ctrls.wrQLenPdf::10                      0                       # What write queue length does an incoming req see
system.mem_ctrls.wrQLenPdf::11                      0                       # What write queue length does an incoming req see
system.mem_ctrls.wrQLenPdf::12                      0                       # What write queue length does an incoming req see
system.mem_ctrls.wrQLenPdf::13                      0                       # What write queue length does an incoming req see
system.mem_ctrls.wrQLenPdf::14                      0                       # What write queue length does an incoming req see
system.mem_ctrls.wrQLenPdf::15                      0                       # What write queue length does an incoming req see
system.mem_ctrls.wrQLenPdf::16                      0                       # What write queue length does an incoming req see
system.mem_ctrls.wrQLenPdf::17                     30                       # What write queue length does an incoming req see
system.mem_ctrls.wrQLenPdf::18                     30                       # What write queue length does an incoming req see
system.mem_ctrls.wrQLenPdf::19                     30                       # What write queue length does an incoming req see
system.mem_ctrls.wrQLenPdf::20                     30                       # What write queue length does an incoming req see
system.mem_ctrls.wrQLenPdf::21                     30                       # What write queue length does an incoming req see
system.mem_ctrls.wrQLenPdf::22                     30                       # What write queue length does an incoming req see
system.mem_ctrls.wrQLenPdf::23                     30                       # What write queue length does an incoming req see
system.mem_ctrls.wrQLenPdf::24                     30                       # What write queue length does an incoming req see
system.mem_ctrls.wrQLenPdf::25                     30                       # What write queue length does an incoming req see
system.mem_ctrls.wrQLenPdf::26                     30                       # What write queue length does an incoming req see
system.mem_ctrls.wrQLenPdf::27                     30                       # What write queue length does an incoming req see
system.mem_ctrls.wrQLenPdf::28                     31                       # What write queue length does an incoming req see
system.mem_ctrls.wrQLenPdf::29                     31                       # What write queue length does an incoming req see
system.mem_ctrls.wrQLenPdf::30                     31                       # What write queue length does an incoming req see
system.mem_ctrls.wrQLenPdf::31                     31                       # What write queue length does an incoming req see
system.mem_ctrls.wrQLenPdf::32                     31                       # What write queue length does an incoming req see
system.mem_ctrls.wrQLenPdf::33                      0                       # What write queue length does an incoming req see
system.mem_ctrls.wrQLenPdf::34                      0                       # What write queue length does an incoming req see
system.mem_ctrls.wrQLenPdf::35                      0                       # What write queue length does an incoming req see
system.mem_ctrls.wrQLenPdf::36                      0                       # What write queue length does an incoming req see
system.mem_ctrls.wrQLenPdf::37                      0                       # What write queue length does an incoming req see
system.mem_ctrls.wrQLenPdf::38                      0                       # What write queue length does an incoming req see
system.mem_ctrls.wrQLenPdf::39                      0                       # What write queue length does an incoming req see
system.mem_ctrls.wrQLenPdf::40                      0                       # What write queue length does an incoming req see
system.mem_ctrls.wrQLenPdf::41                      0                       # What write queue length does an incoming req see
system.mem_ctrls.wrQLenPdf::42                      0                       # What write queue length does an incoming req see
system.mem_ctrls.wrQLenPdf::43                      0                       # What write queue length does an incoming req see
system.mem_ctrls.wrQLenPdf::44                      0                       # What write queue length does an incoming req see
system.mem_ctrls.wrQLenPdf::45                      0                       # What write queue length does an incoming req see
system.mem_ctrls.wrQLenPdf::46                      0                       # What write queue length does an incoming req see
system.mem_ctrls.wrQLenPdf::47                      0                       # What write queue length does an incoming req see
system.mem_ctrls.wrQLenPdf::48                      0                       # What write queue length does an incoming req see
system.mem_ctrls.wrQLenPdf::49                      0                       # What write queue length does an incoming req see
system.mem_ctrls.wrQLenPdf::50                      0                       # What write queue length does an incoming req see
system.mem_ctrls.wrQLenPdf::51                      0                       # What write queue length does an incoming req see
system.mem_ctrls.wrQLenPdf::52                      0                       # What write queue length does an incoming req see
system.mem_ctrls.wrQLenPdf::53                      0                       # What write queue length does an incoming req see
system.mem_ctrls.wrQLenPdf::54                      0                       # What write queue length does an incoming req see
system.mem_ctrls.wrQLenPdf::55                      0                       # What write queue length does an incoming req see
system.mem_ctrls.wrQLenPdf::56                      0                       # What write queue length does an incoming req see
system.mem_ctrls.wrQLenPdf::57                      0                       # What write queue length does an incoming req see
system.mem_ctrls.wrQLenPdf::58                      0                       # What write queue length does an incoming req see
system.mem_ctrls.wrQLenPdf::59                      0                       # What write queue length does an incoming req see
system.mem_ctrls.wrQLenPdf::60                      0                       # What write queue length does an incoming req see
system.mem_ctrls.wrQLenPdf::61                      0                       # What write queue length does an incoming req see
system.mem_ctrls.wrQLenPdf::62                      0                       # What write queue length does an incoming req see
system.mem_ctrls.wrQLenPdf::63                      0                       # What write queue length does an incoming req see
system.mem_ctrls.bytesPerActivate::samples        97406                       # Bytes accessed per row activation
system.mem_ctrls.bytesPerActivate::mean    128.923146                       # Bytes accessed per row activation
system.mem_ctrls.bytesPerActivate::gmean   110.708713                       # Bytes accessed per row activation
system.mem_ctrls.bytesPerActivate::stdev    77.476936                       # Bytes accessed per row activation
system.mem_ctrls.bytesPerActivate::0-127        41836     42.95%     42.95% # Bytes accessed per row activation
system.mem_ctrls.bytesPerActivate::128-255        44303     45.48%     88.43% # Bytes accessed per row activation
system.mem_ctrls.bytesPerActivate::256-383         9752     10.01%     98.44% # Bytes accessed per row activation
system.mem_ctrls.bytesPerActivate::384-511         1349      1.38%     99.83% # Bytes accessed per row activation
system.mem_ctrls.bytesPerActivate::512-639          130      0.13%     99.96% # Bytes accessed per row activation
system.mem_ctrls.bytesPerActivate::640-767           14      0.01%     99.98% # Bytes accessed per row activation
system.mem_ctrls.bytesPerActivate::768-895            6      0.01%     99.98% # Bytes accessed per row activation
system.mem_ctrls.bytesPerActivate::896-1023            5      0.01%     99.99% # Bytes accessed per row activation
system.mem_ctrls.bytesPerActivate::1024-1151           11      0.01%    100.00% # Bytes accessed per row activation
system.mem_ctrls.bytesPerActivate::total        97406                       # Bytes accessed per row activation
system.mem_ctrls.rdPerTurnAround::samples           31                       # Reads before turning the bus around for writes
system.mem_ctrls.rdPerTurnAround::mean    6404.709677                       # Reads before turning the bus around for writes
system.mem_ctrls.rdPerTurnAround::gmean   6281.463243                       # Reads before turning the bus around for writes
system.mem_ctrls.rdPerTurnAround::stdev   1284.252888                       # Reads before turning the bus around for writes
system.mem_ctrls.rdPerTurnAround::4096-4607            2      6.45%      6.45% # Reads before turning the bus around for writes
system.mem_ctrls.rdPerTurnAround::4608-5119            2      6.45%     12.90% # Reads before turning the bus around for writes
system.mem_ctrls.rdPerTurnAround::5120-5631            7     22.58%     35.48% # Reads before turning the bus around for writes
system.mem_ctrls.rdPerTurnAround::5632-6143            4     12.90%     48.39% # Reads before turning the bus around for writes
system.mem_ctrls.rdPerTurnAround::6144-6655            3      9.68%     58.06% # Reads before turning the bus around for writes
system.mem_ctrls.rdPerTurnAround::6656-7167            4     12.90%     70.97% # Reads before turning the bus around for writes
system.mem_ctrls.rdPerTurnAround::7168-7679            3      9.68%     80.65% # Reads before turning the bus around for writes
system.mem_ctrls.rdPerTurnAround::7680-8191            1      3.23%     83.87% # Reads before turning the bus around for writes
system.mem_ctrls.rdPerTurnAround::8192-8703            4     12.90%     96.77% # Reads before turning the bus around for writes
system.mem_ctrls.rdPerTurnAround::8704-9215            1      3.23%    100.00% # Reads before turning the bus around for writes
system.mem_ctrls.rdPerTurnAround::total            31                       # Reads before turning the bus around for writes
system.mem_ctrls.wrPerTurnAround::samples           31                       # Writes before turning the bus around for reads
system.mem_ctrls.wrPerTurnAround::mean             16                       # Writes before turning the bus around for reads
system.mem_ctrls.wrPerTurnAround::gmean     16.000000                       # Writes before turning the bus around for reads
system.mem_ctrls.wrPerTurnAround::16               31    100.00%    100.00% # Writes before turning the bus around for reads
system.mem_ctrls.wrPerTurnAround::total            31                       # Writes before turning the bus around for reads
system.mem_ctrls.totQLat                   4794415500                       # Total ticks spent queuing
system.mem_ctrls.totMemAccLat              8464090500                       # Total ticks spent from burst creation until serviced by the DRAM
system.mem_ctrls.totBusLat                  978580000                       # Total ticks spent in databus transfers
system.mem_ctrls.avgQLat                     24496.80                       # Average queueing delay per DRAM burst
system.mem_ctrls.avgBusLat                    5000.00                       # Average bus latency per DRAM burst
system.mem_ctrls.avgMemAccLat                43246.80                       # Average memory access latency per DRAM burst
system.mem_ctrls.avgRdBW                       820.43                       # Average DRAM read bandwidth in MiByte/s
system.mem_ctrls.avgWrBW                         2.08                       # Average achieved write bandwidth in MiByte/s
system.mem_ctrls.avgRdBWSys                    820.68                       # Average system read bandwidth in MiByte/s
system.mem_ctrls.avgWrBWSys                      2.04                       # Average system write bandwidth in MiByte/s
system.mem_ctrls.peakBW                      12800.00                       # Theoretical peak bandwidth in MiByte/s
system.mem_ctrls.busUtil                         6.43                       # Data bus utilization in percentage
system.mem_ctrls.busUtilRead                     6.41                       # Data bus utilization in percentage for reads
system.mem_ctrls.busUtilWrite                    0.02                       # Data bus utilization in percentage for writes
system.mem_ctrls.avgRdQLen                       1.33                       # Average read queue length when enqueuing
system.mem_ctrls.avgWrQLen                      25.61                       # Average write queue length when enqueuing
system.mem_ctrls.readRowHits                    98375                       # Number of row buffer hits during reads
system.mem_ctrls.writeRowHits                     432                       # Number of row buffer hits during writes
system.mem_ctrls.readRowHitRate                 50.26                       # Row buffer hit rate for reads
system.mem_ctrls.writeRowHitRate                89.07                       # Row buffer hit rate for writes
system.mem_ctrls.avgGap                      77791.27                       # Average gap between requests
system.mem_ctrls.pageHitRate                    50.36                       # Row buffer hit rate, read and write combined
system.mem_ctrls_0.actEnergy                345347520                       # Energy for activate commands per rank (pJ)
system.mem_ctrls_0.preEnergy                183560355                       # Energy for precharge commands per rank (pJ)
system.mem_ctrls_0.readEnergy               691651800                       # Energy for read commands per rank (pJ)
system.mem_ctrls_0.writeEnergy                1602540                       # Energy for write commands per rank (pJ)
system.mem_ctrls_0.refreshEnergy         1205309040.000000                       # Energy for refresh commands per rank (pJ)
system.mem_ctrls_0.actBackEnergy           1618037340                       # Energy for active background per rank (pJ)
system.mem_ctrls_0.preBackEnergy             24447840                       # Energy for precharge background per rank (pJ)
system.mem_ctrls_0.actPowerDownEnergy      5185062000                       # Energy for active power-down per rank (pJ)
system.mem_ctrls_0.prePowerDownEnergy       109286400                       # Energy for precharge power-down per rank (pJ)
system.mem_ctrls_0.selfRefreshEnergy                0                       # Energy for self refresh per rank (pJ)
system.mem_ctrls_0.totalEnergy             9364304835                       # Total energy per rank (pJ)
system.mem_ctrls_0.averagePower            613.355195                       # Core power per rank (mW)
system.mem_ctrls_0.totalIdleTime          11655121125                       # Total Idle time Per DRAM Rank
system.mem_ctrls_0.memoryStateTime::IDLE      9365500                       # Time in different power states
system.mem_ctrls_0.memoryStateTime::REF     509866000                       # Time in different power states
system.mem_ctrls_0.memoryStateTime::SREF            0                       # Time in different power states
system.mem_ctrls_0.memoryStateTime::PRE_PDN    284440000                       # Time in different power states
system.mem_ctrls_0.memoryStateTime::ACT    3092349750                       # Time in different power states
system.mem_ctrls_0.memoryStateTime::ACT_PDN  11371322875                       # Time in different power states
system.mem_ctrls_1.actEnergy                350117040                       # Energy for activate commands per rank (pJ)
system.mem_ctrls_1.preEnergy                186091620                       # Energy for precharge commands per rank (pJ)
system.mem_ctrls_1.readEnergy               705753300                       # Energy for read commands per rank (pJ)
system.mem_ctrls_1.writeEnergy                 986580                       # Energy for write commands per rank (pJ)
system.mem_ctrls_1.refreshEnergy         1205309040.000000                       # Energy for refresh commands per rank (pJ)
system.mem_ctrls_1.actBackEnergy           1641227220                       # Energy for active background per rank (pJ)
system.mem_ctrls_1.preBackEnergy             24284640                       # Energy for precharge background per rank (pJ)
system.mem_ctrls_1.actPowerDownEnergy      5205930270                       # Energy for active power-down per rank (pJ)
system.mem_ctrls_1.prePowerDownEnergy        72348000                       # Energy for precharge power-down per rank (pJ)
system.mem_ctrls_1.selfRefreshEnergy                0                       # Energy for self refresh per rank (pJ)
system.mem_ctrls_1.totalEnergy             9392047710                       # Total energy per rank (pJ)
system.mem_ctrls_1.averagePower            615.172333                       # Core power per rank (mW)
system.mem_ctrls_1.totalIdleTime          11605405375                       # Total Idle time Per DRAM Rank
system.mem_ctrls_1.memoryStateTime::IDLE      9036000                       # Time in different power states
system.mem_ctrls_1.memoryStateTime::REF     509860000                       # Time in different power states
system.mem_ctrls_1.memoryStateTime::SREF            0                       # Time in different power states
system.mem_ctrls_1.memoryStateTime::PRE_PDN    188245750                       # Time in different power states
system.mem_ctrls_1.memoryStateTime::ACT    3143042750                       # Time in different power states
system.mem_ctrls_1.memoryStateTime::ACT_PDN  11417159625                       # Time in different power states
system.pwrStateResidencyTicks::UNDEFINED  15267344125                       # Cumulative time (in ticks) in various power states
system.cpu0.branchPred.lookups                1671260                       # Number of BP lookups
system.cpu0.branchPred.condPredicted          1671260                       # Number of conditional branches predicted
system.cpu0.branchPred.condIncorrect            70957                       # Number of conditional branches incorrect
system.cpu0.branchPred.BTBLookups             1248004                       # Number of BTB lookups
system.cpu0.branchPred.BTBHits                      0                       # Number of BTB hits
system.cpu0.branchPred.BTBCorrect                   0                       # Number of correct BTB predictions (this stat may not work properly.
system.cpu0.branchPred.BTBHitPct             0.000000                       # BTB Hit Percentage
system.cpu0.branchPred.usedRAS                  48711                       # Number of times the RAS was used to get a target.
system.cpu0.branchPred.RASInCorrect              7560                       # Number of incorrect RAS predictions.
system.cpu0.branchPred.indirectLookups        1248004                       # Number of indirect predictor lookups.
system.cpu0.branchPred.indirectHits            711884                       # Number of indirect target hits.
system.cpu0.branchPred.indirectMisses          536120                       # Number of indirect misses.
system.cpu0.branchPredindirectMispredicted        23182                       # Number of mispredicted indirect branches.
system.cpu_voltage_domain.voltage                   1                       # Voltage in Volts
system.cpu_clk_domain.clock                       500                       # Clock period in ticks
system.cpu0.dtb.walker.pwrStateResidencyTicks::UNDEFINED  15267344125                       # Cumulative time (in ticks) in various power states
system.cpu0.dtb.rdAccesses                     767225                       # TLB accesses on read requests
system.cpu0.dtb.wrAccesses                      59159                       # TLB accesses on write requests
system.cpu0.dtb.rdMisses                       147325                       # TLB misses on read requests
system.cpu0.dtb.wrMisses                          874                       # TLB misses on write requests
system.cpu0.apic_clk_domain.clock                8000                       # Clock period in ticks
system.cpu0.interrupts.pwrStateResidencyTicks::UNDEFINED  15267344125                       # Cumulative time (in ticks) in various power states
system.cpu0.itb.walker.pwrStateResidencyTicks::UNDEFINED  15267344125                       # Cumulative time (in ticks) in various power states
system.cpu0.itb.rdAccesses                          0                       # TLB accesses on read requests
system.cpu0.itb.wrAccesses                    1389439                       # TLB accesses on write requests
system.cpu0.itb.rdMisses                            0                       # TLB misses on read requests
system.cpu0.itb.wrMisses                         5402                       # TLB misses on write requests
system.cpu0.workload.numSyscalls                    0                       # Number of system calls
system.cpu0.pwrStateResidencyTicks::ON    15267344125                       # Cumulative time (in ticks) in various power states
system.cpu0.numCycles                        30534689                       # number of cpu cycles simulated
system.cpu0.numWorkItemsStarted                     0                       # number of work items this cpu started
system.cpu0.numWorkItemsCompleted                   0                       # number of work items this cpu completed
system.cpu0.fetch.icacheStallCycles           1420920                       # Number of cycles fetch is stalled on an Icache miss
system.cpu0.fetch.Insts                       4897397                       # Number of instructions fetch has processed
system.cpu0.fetch.Branches                    1671260                       # Number of branches that fetch encountered
system.cpu0.fetch.predictedBranches            760595                       # Number of branches that fetch has predicted taken
system.cpu0.fetch.Cycles                     28940592                       # Number of cycles fetch has run and was not squashing or blocked
system.cpu0.fetch.SquashCycles                 145576                       # Number of cycles fetch has spent squashing
system.cpu0.fetch.TlbCycles                      1875                       # Number of cycles fetch has spent waiting for tlb
system.cpu0.fetch.MiscStallCycles                1323                       # Number of cycles fetch has spent waiting on interrupts, or bad addresses, or out of MSHRs
system.cpu0.fetch.PendingTrapStallCycles        44966                       # Number of stall cycles due to pending traps
system.cpu0.fetch.CacheLines                  1384037                       # Number of cache lines fetched
system.cpu0.fetch.IcacheSquashes                 8067                       # Number of outstanding Icache misses that were squashed
system.cpu0.fetch.ItlbSquashes                     13                       # Number of outstanding ITLB misses that were squashed
system.cpu0.fetch.rateDist::samples          30482464                       # Number of instructions fetched each cycle (Total)
system.cpu0.fetch.rateDist::mean             0.322850                       # Number of instructions fetched each cycle (Total)
system.cpu0.fetch.rateDist::stdev            1.431913                       # Number of instructions fetched each cycle (Total)
system.cpu0.fetch.rateDist::underflows              0      0.00%      0.00% # Number of instructions fetched each cycle (Total)
system.cpu0.fetch.rateDist::0                28587699     93.78%     93.78% # Number of instructions fetched each cycle (Total)
system.cpu0.fetch.rateDist::1                   26174      0.09%     93.87% # Number of instructions fetched each cycle (Total)
system.cpu0.fetch.rateDist::2                  678106      2.22%     96.09% # Number of instructions fetched each cycle (Total)
system.cpu0.fetch.rateDist::3                   28647      0.09%     96.19% # Number of instructions fetched each cycle (Total)
system.cpu0.fetch.rateDist::4                  131877      0.43%     96.62% # Number of instructions fetched each cycle (Total)
system.cpu0.fetch.rateDist::5                   66317      0.22%     96.84% # Number of instructions fetched each cycle (Total)
system.cpu0.fetch.rateDist::6                   84985      0.28%     97.12% # Number of instructions fetched each cycle (Total)
system.cpu0.fetch.rateDist::7                   25353      0.08%     97.20% # Number of instructions fetched each cycle (Total)
system.cpu0.fetch.rateDist::8                  853306      2.80%    100.00% # Number of instructions fetched each cycle (Total)
system.cpu0.fetch.rateDist::overflows               0      0.00%    100.00% # Number of instructions fetched each cycle (Total)
system.cpu0.fetch.rateDist::min_value               0                       # Number of instructions fetched each cycle (Total)
system.cpu0.fetch.rateDist::max_value               8                       # Number of instructions fetched each cycle (Total)
system.cpu0.fetch.rateDist::total            30482464                       # Number of instructions fetched each cycle (Total)
system.cpu0.fetch.branchRate                 0.054733                       # Number of branch fetches per cycle
system.cpu0.fetch.rate                       0.160388                       # Number of inst fetches per cycle
system.cpu0.decode.IdleCycles                  713118                       # Number of cycles decode is idle
system.cpu0.decode.BlockedCycles             28449818                       # Number of cycles decode is blocked
system.cpu0.decode.RunCycles                   935941                       # Number of cycles decode is running
system.cpu0.decode.UnblockCycles               310799                       # Number of cycles decode is unblocking
system.cpu0.decode.SquashCycles                 72788                       # Number of cycles decode is squashing
system.cpu0.decode.DecodedInsts               8066677                       # Number of instructions handled by decode
system.cpu0.rename.SquashCycles                 72788                       # Number of cycles rename is squashing
system.cpu0.rename.IdleCycles                  806391                       # Number of cycles rename is idle
system.cpu0.rename.BlockCycles               27203180                       # Number of cycles rename is blocking
system.cpu0.rename.serializeStallCycles         12660                       # count of cycles rename stalled for serializing inst
system.cpu0.rename.RunCycles                  1074140                       # Number of cycles rename is running
system.cpu0.rename.UnblockCycles              1313305                       # Number of cycles rename is unblocking
system.cpu0.rename.RenamedInsts               7735781                       # Number of instructions processed by rename
system.cpu0.rename.ROBFullEvents                74416                       # Number of times rename has blocked due to ROB full
system.cpu0.rename.IQFullEvents                996772                       # Number of times rename has blocked due to IQ full
system.cpu0.rename.LQFullEvents                266582                       # Number of times rename has blocked due to LQ full
system.cpu0.rename.SQFullEvents                   701                       # Number of times rename has blocked due to SQ full
system.cpu0.rename.RenamedOperands            9224091                       # Number of destination operands rename has renamed
system.cpu0.rename.RenameLookups             21483450                       # Number of register rename lookups that rename has made
system.cpu0.rename.int_rename_lookups        10184947                       # Number of integer rename lookups
system.cpu0.rename.fp_rename_lookups            43030                       # Number of floating rename lookups
system.cpu0.rename.CommittedMaps              3132260                       # Number of HB maps that are committed
system.cpu0.rename.UndoneMaps                 6091880                       # Number of HB maps that are undone due to squashing
system.cpu0.rename.serializingInsts               335                       # count of serializing insts renamed
system.cpu0.rename.tempSerializingInsts           403                       # count of temporary serializing insts renamed
system.cpu0.rename.skidInsts                  1955767                       # count of insts added to the skid buffer
system.cpu0.memDep0.insertedLoads             1391470                       # Number of loads inserted to the mem dependence unit.
system.cpu0.memDep0.insertedStores              82730                       # Number of stores inserted to the mem dependence unit.
system.cpu0.memDep0.conflictingLoads             3802                       # Number of conflicting loads.
system.cpu0.memDep0.conflictingStores            4226                       # Number of conflicting stores.
system.cpu0.iq.iqInstsAdded                   7333600                       # Number of instructions added to the IQ (excludes non-spec)
system.cpu0.iq.iqNonSpecInstsAdded               4319                       # Number of non-speculative instructions added to the IQ
system.cpu0.iq.iqInstsIssued                  5188403                       # Number of instructions issued
system.cpu0.iq.iqSquashedInstsIssued             5892                       # Number of squashed instructions issued
system.cpu0.iq.iqSquashedInstsExamined        4727714                       # Number of squashed instructions iterated over during squash; mainly for profiling
system.cpu0.iq.iqSquashedOperandsExamined      9882096                       # Number of squashed operands that are examined and possibly removed from graph
system.cpu0.iq.iqSquashedNonSpecRemoved          4319                       # Number of squashed non-spec instructions that were removed
system.cpu0.iq.issued_per_cycle::samples     30482464                       # Number of insts issued each cycle
system.cpu0.iq.issued_per_cycle::mean        0.170209                       # Number of insts issued each cycle
system.cpu0.iq.issued_per_cycle::stdev       0.761533                       # Number of insts issued each cycle
system.cpu0.iq.issued_per_cycle::underflows            0      0.00%      0.00% # Number of insts issued each cycle
system.cpu0.iq.issued_per_cycle::0           28411201     93.21%     93.21% # Number of insts issued each cycle
system.cpu0.iq.issued_per_cycle::1             792903      2.60%     95.81% # Number of insts issued each cycle
system.cpu0.iq.issued_per_cycle::2             430620      1.41%     97.22% # Number of insts issued each cycle
system.cpu0.iq.issued_per_cycle::3             292458      0.96%     98.18% # Number of insts issued each cycle
system.cpu0.iq.issued_per_cycle::4             326766      1.07%     99.25% # Number of insts issued each cycle
system.cpu0.iq.issued_per_cycle::5              95396      0.31%     99.56% # Number of insts issued each cycle
system.cpu0.iq.issued_per_cycle::6              81166      0.27%     99.83% # Number of insts issued each cycle
system.cpu0.iq.issued_per_cycle::7              29786      0.10%     99.93% # Number of insts issued each cycle
system.cpu0.iq.issued_per_cycle::8              22168      0.07%    100.00% # Number of insts issued each cycle
system.cpu0.iq.issued_per_cycle::overflows            0      0.00%    100.00% # Number of insts issued each cycle
system.cpu0.iq.issued_per_cycle::min_value            0                       # Number of insts issued each cycle
system.cpu0.iq.issued_per_cycle::max_value            8                       # Number of insts issued each cycle
system.cpu0.iq.issued_per_cycle::total       30482464                       # Number of insts issued each cycle
system.cpu0.iq.fu_full::No_OpClass                  0      0.00%      0.00% # attempts to use FU when none available
system.cpu0.iq.fu_full::IntAlu                  12057     70.42%     70.42% # attempts to use FU when none available
system.cpu0.iq.fu_full::IntMult                     0      0.00%     70.42% # attempts to use FU when none available
system.cpu0.iq.fu_full::IntDiv                      0      0.00%     70.42% # attempts to use FU when none available
system.cpu0.iq.fu_full::FloatAdd                 1285      7.51%     77.93% # attempts to use FU when none available
system.cpu0.iq.fu_full::FloatCmp                    0      0.00%     77.93% # attempts to use FU when none available
system.cpu0.iq.fu_full::FloatCvt                    0      0.00%     77.93% # attempts to use FU when none available
system.cpu0.iq.fu_full::FloatMult                   0      0.00%     77.93% # attempts to use FU when none available
system.cpu0.iq.fu_full::FloatMultAcc                0      0.00%     77.93% # attempts to use FU when none available
system.cpu0.iq.fu_full::FloatDiv                    0      0.00%     77.93% # attempts to use FU when none available
system.cpu0.iq.fu_full::FloatMisc                   0      0.00%     77.93% # attempts to use FU when none available
system.cpu0.iq.fu_full::FloatSqrt                   0      0.00%     77.93% # attempts to use FU when none available
system.cpu0.iq.fu_full::SimdAdd                     0      0.00%     77.93% # attempts to use FU when none available
system.cpu0.iq.fu_full::SimdAddAcc                  0      0.00%     77.93% # attempts to use FU when none available
system.cpu0.iq.fu_full::SimdAlu                     0      0.00%     77.93% # attempts to use FU when none available
system.cpu0.iq.fu_full::SimdCmp                     0      0.00%     77.93% # attempts to use FU when none available
system.cpu0.iq.fu_full::SimdCvt                     0      0.00%     77.93% # attempts to use FU when none available
system.cpu0.iq.fu_full::SimdMisc                    0      0.00%     77.93% # attempts to use FU when none available
system.cpu0.iq.fu_full::SimdMult                    0      0.00%     77.93% # attempts to use FU when none available
system.cpu0.iq.fu_full::SimdMultAcc                 0      0.00%     77.93% # attempts to use FU when none available
system.cpu0.iq.fu_full::SimdShift                   0      0.00%     77.93% # attempts to use FU when none available
system.cpu0.iq.fu_full::SimdShiftAcc                0      0.00%     77.93% # attempts to use FU when none available
system.cpu0.iq.fu_full::SimdSqrt                    0      0.00%     77.93% # attempts to use FU when none available
system.cpu0.iq.fu_full::SimdFloatAdd                0      0.00%     77.93% # attempts to use FU when none available
system.cpu0.iq.fu_full::SimdFloatAlu                0      0.00%     77.93% # attempts to use FU when none available
system.cpu0.iq.fu_full::SimdFloatCmp                0      0.00%     77.93% # attempts to use FU when none available
system.cpu0.iq.fu_full::SimdFloatCvt                0      0.00%     77.93% # attempts to use FU when none available
system.cpu0.iq.fu_full::SimdFloatDiv                0      0.00%     77.93% # attempts to use FU when none available
system.cpu0.iq.fu_full::SimdFloatMisc               0      0.00%     77.93% # attempts to use FU when none available
system.cpu0.iq.fu_full::SimdFloatMult               0      0.00%     77.93% # attempts to use FU when none available
system.cpu0.iq.fu_full::SimdFloatMultAcc            0      0.00%     77.93% # attempts to use FU when none available
system.cpu0.iq.fu_full::SimdFloatSqrt               0      0.00%     77.93% # attempts to use FU when none available
system.cpu0.iq.fu_full::MemRead                  3344     19.53%     97.46% # attempts to use FU when none available
system.cpu0.iq.fu_full::MemWrite                  287      1.68%     99.14% # attempts to use FU when none available
system.cpu0.iq.fu_full::FloatMemRead              118      0.69%     99.82% # attempts to use FU when none available
system.cpu0.iq.fu_full::FloatMemWrite              30      0.18%    100.00% # attempts to use FU when none available
system.cpu0.iq.fu_full::IprAccess                   0      0.00%    100.00% # attempts to use FU when none available
system.cpu0.iq.fu_full::InstPrefetch                0      0.00%    100.00% # attempts to use FU when none available
system.cpu0.iq.FU_type_0::No_OpClass            19544      0.38%      0.38% # Type of FU issued
system.cpu0.iq.FU_type_0::IntAlu              4274579     82.39%     82.76% # Type of FU issued
system.cpu0.iq.FU_type_0::IntMult                 812      0.02%     82.78% # Type of FU issued
system.cpu0.iq.FU_type_0::IntDiv                11375      0.22%     83.00% # Type of FU issued
system.cpu0.iq.FU_type_0::FloatAdd              16177      0.31%     83.31% # Type of FU issued
system.cpu0.iq.FU_type_0::FloatCmp                  0      0.00%     83.31% # Type of FU issued
system.cpu0.iq.FU_type_0::FloatCvt                  0      0.00%     83.31% # Type of FU issued
system.cpu0.iq.FU_type_0::FloatMult                 0      0.00%     83.31% # Type of FU issued
system.cpu0.iq.FU_type_0::FloatMultAcc              0      0.00%     83.31% # Type of FU issued
system.cpu0.iq.FU_type_0::FloatDiv                  0      0.00%     83.31% # Type of FU issued
system.cpu0.iq.FU_type_0::FloatMisc                 0      0.00%     83.31% # Type of FU issued
system.cpu0.iq.FU_type_0::FloatSqrt                 0      0.00%     83.31% # Type of FU issued
system.cpu0.iq.FU_type_0::SimdAdd                   0      0.00%     83.31% # Type of FU issued
system.cpu0.iq.FU_type_0::SimdAddAcc                0      0.00%     83.31% # Type of FU issued
system.cpu0.iq.FU_type_0::SimdAlu                   0      0.00%     83.31% # Type of FU issued
system.cpu0.iq.FU_type_0::SimdCmp                   0      0.00%     83.31% # Type of FU issued
system.cpu0.iq.FU_type_0::SimdCvt                   0      0.00%     83.31% # Type of FU issued
system.cpu0.iq.FU_type_0::SimdMisc                  0      0.00%     83.31% # Type of FU issued
system.cpu0.iq.FU_type_0::SimdMult                  0      0.00%     83.31% # Type of FU issued
system.cpu0.iq.FU_type_0::SimdMultAcc               0      0.00%     83.31% # Type of FU issued
system.cpu0.iq.FU_type_0::SimdShift                 0      0.00%     83.31% # Type of FU issued
system.cpu0.iq.FU_type_0::SimdShiftAcc              0      0.00%     83.31% # Type of FU issued
system.cpu0.iq.FU_type_0::SimdSqrt                  0      0.00%     83.31% # Type of FU issued
system.cpu0.iq.FU_type_0::SimdFloatAdd              0      0.00%     83.31% # Type of FU issued
system.cpu0.iq.FU_type_0::SimdFloatAlu              0      0.00%     83.31% # Type of FU issued
system.cpu0.iq.FU_type_0::SimdFloatCmp              0      0.00%     83.31% # Type of FU issued
system.cpu0.iq.FU_type_0::SimdFloatCvt              0      0.00%     83.31% # Type of FU issued
system.cpu0.iq.FU_type_0::SimdFloatDiv              0      0.00%     83.31% # Type of FU issued
system.cpu0.iq.FU_type_0::SimdFloatMisc             0      0.00%     83.31% # Type of FU issued
system.cpu0.iq.FU_type_0::SimdFloatMult             0      0.00%     83.31% # Type of FU issued
system.cpu0.iq.FU_type_0::SimdFloatMultAcc            0      0.00%     83.31% # Type of FU issued
system.cpu0.iq.FU_type_0::SimdFloatSqrt             0      0.00%     83.31% # Type of FU issued
system.cpu0.iq.FU_type_0::MemRead              799888     15.42%     98.73% # Type of FU issued
system.cpu0.iq.FU_type_0::MemWrite              63052      1.22%     99.94% # Type of FU issued
system.cpu0.iq.FU_type_0::FloatMemRead           2855      0.06%    100.00% # Type of FU issued
system.cpu0.iq.FU_type_0::FloatMemWrite           121      0.00%    100.00% # Type of FU issued
system.cpu0.iq.FU_type_0::IprAccess                 0      0.00%    100.00% # Type of FU issued
system.cpu0.iq.FU_type_0::InstPrefetch              0      0.00%    100.00% # Type of FU issued
system.cpu0.iq.FU_type_0::total               5188403                       # Type of FU issued
system.cpu0.iq.rate                          0.169918                       # Inst issue rate
system.cpu0.iq.fu_busy_cnt                      17121                       # FU busy when requested
system.cpu0.iq.fu_busy_rate                  0.003300                       # FU busy rate (busy events/executed inst)
system.cpu0.iq.int_inst_queue_reads          40842307                       # Number of integer instruction queue reads
system.cpu0.iq.int_inst_queue_writes         12029650                       # Number of integer instruction queue writes
system.cpu0.iq.int_inst_queue_wakeup_accesses      4967848                       # Number of integer instruction queue wakeup accesses
system.cpu0.iq.fp_inst_queue_reads              39972                       # Number of floating instruction queue reads
system.cpu0.iq.fp_inst_queue_writes             35984                       # Number of floating instruction queue writes
system.cpu0.iq.fp_inst_queue_wakeup_accesses        17709                       # Number of floating instruction queue wakeup accesses
system.cpu0.iq.vec_inst_queue_reads                 0                       # Number of vector instruction queue reads
system.cpu0.iq.vec_inst_queue_writes                0                       # Number of vector instruction queue writes
system.cpu0.iq.vec_inst_queue_wakeup_accesses            0                       # Number of vector instruction queue wakeup accesses
system.cpu0.iq.int_alu_accesses               5165384                       # Number of integer alu accesses
system.cpu0.iq.fp_alu_accesses                  20596                       # Number of floating point alu accesses
system.cpu0.iq.vec_alu_accesses                     0                       # Number of vector alu accesses
system.cpu0.iew.lsq.thread0.forwLoads            5194                       # Number of loads that had data forwarded from stores
system.cpu0.iew.lsq.thread0.invAddrLoads            0                       # Number of loads ignored due to an invalid address
system.cpu0.iew.lsq.thread0.squashedLoads       908049                       # Number of loads squashed
system.cpu0.iew.lsq.thread0.ignoredResponses          179                       # Number of memory responses ignored because the instruction is squashed
system.cpu0.iew.lsq.thread0.memOrderViolation            2                       # Number of memory ordering violations
system.cpu0.iew.lsq.thread0.squashedStores        49997                       # Number of stores squashed
system.cpu0.iew.lsq.thread0.invAddrSwpfs            0                       # Number of software prefetches ignored due to an invalid address
system.cpu0.iew.lsq.thread0.blockedLoads            0                       # Number of blocked loads due to partial load-store forwarding
system.cpu0.iew.lsq.thread0.rescheduledLoads           32                       # Number of loads that were rescheduled
system.cpu0.iew.lsq.thread0.cacheBlocked         1292                       # Number of times an access to memory failed due to the cache being blocked
system.cpu0.iew.iewIdleCycles                       0                       # Number of cycles IEW is idle
system.cpu0.iew.iewSquashCycles                 72788                       # Number of cycles IEW is squashing
system.cpu0.iew.iewBlockCycles               25281791                       # Number of cycles IEW is blocking
system.cpu0.iew.iewUnblockCycles               259292                       # Number of cycles IEW is unblocking
system.cpu0.iew.iewDispatchedInsts            7337919                       # Number of instructions dispatched to IQ
system.cpu0.iew.iewDispSquashedInsts             4501                       # Number of squashed instructions skipped by dispatch
system.cpu0.iew.iewDispLoadInsts              1391470                       # Number of dispatched load instructions
system.cpu0.iew.iewDispStoreInsts               82730                       # Number of dispatched store instructions
system.cpu0.iew.iewDispNonSpecInsts              1636                       # Number of dispatched non-speculative instructions
system.cpu0.iew.iewIQFullEvents                 19066                       # Number of times the IQ has become full, causing a stall
system.cpu0.iew.iewLSQFullEvents                58249                       # Number of times the LSQ has become full, causing a stall
system.cpu0.iew.memOrderViolationEvents             2                       # Number of memory order violations
system.cpu0.iew.predictedTakenIncorrect         38623                       # Number of branches that were predicted taken incorrectly
system.cpu0.iew.predictedNotTakenIncorrect        41712                       # Number of branches that were predicted not taken incorrectly
system.cpu0.iew.branchMispredicts               80335                       # Number of branch mispredicts detected at execute
system.cpu0.iew.iewExecutedInsts              5094800                       # Number of executed instructions
system.cpu0.iew.iewExecLoadInsts               766936                       # Number of load instructions executed
system.cpu0.iew.iewExecSquashedInsts            93599                       # Number of squashed instructions skipped in execute
system.cpu0.iew.exec_swp                            0                       # number of swp insts executed
system.cpu0.iew.exec_nop                            0                       # number of nop insts executed
system.cpu0.iew.exec_refs                      826075                       # number of memory reference insts executed
system.cpu0.iew.exec_branches                  588430                       # Number of branches executed
system.cpu0.iew.exec_stores                     59139                       # Number of stores executed
system.cpu0.iew.exec_rate                    0.166853                       # Inst execution rate
system.cpu0.iew.wb_sent                       5004018                       # cumulative count of insts sent to commit
system.cpu0.iew.wb_count                      4985557                       # cumulative count of insts written-back
system.cpu0.iew.wb_producers                  3717950                       # num instructions producing a value
system.cpu0.iew.wb_consumers                  5826845                       # num instructions consuming a value
system.cpu0.iew.wb_rate                      0.163275                       # insts written-back per cycle
system.cpu0.iew.wb_fanout                    0.638073                       # average fanout of values written-back
system.cpu0.commit.commitSquashedInsts        4728396                       # The number of squashed insts skipped by commit
system.cpu0.commit.branchMispredicts            72787                       # The number of times a branch was mispredicted
system.cpu0.commit.committed_per_cycle::samples     29815558                       # Number of insts commited each cycle
system.cpu0.commit.committed_per_cycle::mean     0.087546                       # Number of insts commited each cycle
system.cpu0.commit.committed_per_cycle::stdev     0.555121                       # Number of insts commited each cycle
system.cpu0.commit.committed_per_cycle::underflows            0      0.00%      0.00% # Number of insts commited each cycle
system.cpu0.commit.committed_per_cycle::0     28707856     96.28%     96.28% # Number of insts commited each cycle
system.cpu0.commit.committed_per_cycle::1       507495      1.70%     97.99% # Number of insts commited each cycle
system.cpu0.commit.committed_per_cycle::2       118870      0.40%     98.39% # Number of insts commited each cycle
system.cpu0.commit.committed_per_cycle::3       320324      1.07%     99.46% # Number of insts commited each cycle
system.cpu0.commit.committed_per_cycle::4        65494      0.22%     99.68% # Number of insts commited each cycle
system.cpu0.commit.committed_per_cycle::5        34482      0.12%     99.80% # Number of insts commited each cycle
system.cpu0.commit.committed_per_cycle::6         6938      0.02%     99.82% # Number of insts commited each cycle
system.cpu0.commit.committed_per_cycle::7         4767      0.02%     99.83% # Number of insts commited each cycle
system.cpu0.commit.committed_per_cycle::8        49332      0.17%    100.00% # Number of insts commited each cycle
system.cpu0.commit.committed_per_cycle::overflows            0      0.00%    100.00% # Number of insts commited each cycle
system.cpu0.commit.committed_per_cycle::min_value            0                       # Number of insts commited each cycle
system.cpu0.commit.committed_per_cycle::max_value            8                       # Number of insts commited each cycle
system.cpu0.commit.committed_per_cycle::total     29815558                       # Number of insts commited each cycle
system.cpu0.commit.committedInsts             1306528                       # Number of instructions committed
system.cpu0.commit.committedOps               2610246                       # Number of ops (including micro ops) committed
system.cpu0.commit.swp_count                        0                       # Number of s/w prefetches committed
system.cpu0.commit.refs                        516163                       # Number of memory references committed
system.cpu0.commit.loads                       483430                       # Number of loads committed
system.cpu0.commit.membars                          0                       # Number of memory barriers committed
system.cpu0.commit.branches                    459067                       # Number of branches committed
system.cpu0.commit.vec_insts                        0                       # Number of committed Vector instructions.
system.cpu0.commit.fp_insts                     13154                       # Number of committed floating point instructions.
system.cpu0.commit.int_insts                  2596912                       # Number of committed integer instructions.
system.cpu0.commit.function_calls                5800                       # Number of function calls committed.
system.cpu0.commit.op_class_0::No_OpClass         4000      0.15%      0.15% # Class of committed instruction
system.cpu0.commit.op_class_0::IntAlu         2068871     79.26%     79.41% # Class of committed instruction
system.cpu0.commit.op_class_0::IntMult            232      0.01%     79.42% # Class of committed instruction
system.cpu0.commit.op_class_0::IntDiv            9736      0.37%     79.79% # Class of committed instruction
system.cpu0.commit.op_class_0::FloatAdd         11244      0.43%     80.23% # Class of committed instruction
system.cpu0.commit.op_class_0::FloatCmp             0      0.00%     80.23% # Class of committed instruction
system.cpu0.commit.op_class_0::FloatCvt             0      0.00%     80.23% # Class of committed instruction
system.cpu0.commit.op_class_0::FloatMult            0      0.00%     80.23% # Class of committed instruction
system.cpu0.commit.op_class_0::FloatMultAcc            0      0.00%     80.23% # Class of committed instruction
system.cpu0.commit.op_class_0::FloatDiv             0      0.00%     80.23% # Class of committed instruction
system.cpu0.commit.op_class_0::FloatMisc            0      0.00%     80.23% # Class of committed instruction
system.cpu0.commit.op_class_0::FloatSqrt            0      0.00%     80.23% # Class of committed instruction
system.cpu0.commit.op_class_0::SimdAdd              0      0.00%     80.23% # Class of committed instruction
system.cpu0.commit.op_class_0::SimdAddAcc            0      0.00%     80.23% # Class of committed instruction
system.cpu0.commit.op_class_0::SimdAlu              0      0.00%     80.23% # Class of committed instruction
system.cpu0.commit.op_class_0::SimdCmp              0      0.00%     80.23% # Class of committed instruction
system.cpu0.commit.op_class_0::SimdCvt              0      0.00%     80.23% # Class of committed instruction
system.cpu0.commit.op_class_0::SimdMisc             0      0.00%     80.23% # Class of committed instruction
system.cpu0.commit.op_class_0::SimdMult             0      0.00%     80.23% # Class of committed instruction
system.cpu0.commit.op_class_0::SimdMultAcc            0      0.00%     80.23% # Class of committed instruction
system.cpu0.commit.op_class_0::SimdShift            0      0.00%     80.23% # Class of committed instruction
system.cpu0.commit.op_class_0::SimdShiftAcc            0      0.00%     80.23% # Class of committed instruction
system.cpu0.commit.op_class_0::SimdSqrt             0      0.00%     80.23% # Class of committed instruction
system.cpu0.commit.op_class_0::SimdFloatAdd            0      0.00%     80.23% # Class of committed instruction
system.cpu0.commit.op_class_0::SimdFloatAlu            0      0.00%     80.23% # Class of committed instruction
system.cpu0.commit.op_class_0::SimdFloatCmp            0      0.00%     80.23% # Class of committed instruction
system.cpu0.commit.op_class_0::SimdFloatCvt            0      0.00%     80.23% # Class of committed instruction
system.cpu0.commit.op_class_0::SimdFloatDiv            0      0.00%     80.23% # Class of committed instruction
system.cpu0.commit.op_class_0::SimdFloatMisc            0      0.00%     80.23% # Class of committed instruction
system.cpu0.commit.op_class_0::SimdFloatMult            0      0.00%     80.23% # Class of committed instruction
system.cpu0.commit.op_class_0::SimdFloatMultAcc            0      0.00%     80.23% # Class of committed instruction
system.cpu0.commit.op_class_0::SimdFloatSqrt            0      0.00%     80.23% # Class of committed instruction
system.cpu0.commit.op_class_0::MemRead         481520     18.45%     98.67% # Class of committed instruction
system.cpu0.commit.op_class_0::MemWrite         32733      1.25%     99.93% # Class of committed instruction
system.cpu0.commit.op_class_0::FloatMemRead         1910      0.07%    100.00% # Class of committed instruction
system.cpu0.commit.op_class_0::FloatMemWrite            0      0.00%    100.00% # Class of committed instruction
system.cpu0.commit.op_class_0::IprAccess            0      0.00%    100.00% # Class of committed instruction
system.cpu0.commit.op_class_0::InstPrefetch            0      0.00%    100.00% # Class of committed instruction
system.cpu0.commit.op_class_0::total          2610246                       # Class of committed instruction
system.cpu0.commit.bw_lim_events                49332                       # number cycles where commit BW limit reached
system.cpu0.rob.rob_reads                    37104868                       # The number of ROB reads
system.cpu0.rob.rob_writes                   15345816                       # The number of ROB writes
system.cpu0.timesIdled                            389                       # Number of times that the entire CPU went into an idle state and unscheduled itself
system.cpu0.idleCycles                          52225                       # Total number of cycles that the CPU has spent unscheduled due to idling
system.cpu0.committedInsts                    1306528                       # Number of Instructions Simulated
system.cpu0.committedOps                      2610246                       # Number of Ops (including micro ops) Simulated
system.cpu0.cpi                             23.370865                       # CPI: Cycles Per Instruction
system.cpu0.cpi_total                       23.370865                       # CPI: Total CPI of All Threads
system.cpu0.ipc                              0.042788                       # IPC: Instructions Per Cycle
system.cpu0.ipc_total                        0.042788                       # IPC: Total IPC of All Threads
system.cpu0.int_regfile_reads                 5073768                       # number of integer regfile reads
system.cpu0.int_regfile_writes                4344731                       # number of integer regfile writes
system.cpu0.fp_regfile_reads                    31508                       # number of floating regfile reads
system.cpu0.fp_regfile_writes                   15708                       # number of floating regfile writes
system.cpu0.cc_regfile_reads                  3083646                       # number of cc regfile reads
system.cpu0.cc_regfile_writes                 1345595                       # number of cc regfile writes
system.cpu0.misc_regfile_reads                2656412                       # number of misc regfile reads
system.cpu0.dcache.tags.pwrStateResidencyTicks::UNDEFINED  15267344125                       # Cumulative time (in ticks) in various power states
system.cpu0.dcache.tags.replacements           241827                       # number of replacements
system.cpu0.dcache.tags.tagsinuse                1024                       # Cycle average of tags in use
system.cpu0.dcache.tags.total_refs             353668                       # Total number of references to valid blocks.
system.cpu0.dcache.tags.sampled_refs           241827                       # Sample count of references to valid blocks.
system.cpu0.dcache.tags.avg_refs             1.462484                       # Average number of references to valid blocks.
system.cpu0.dcache.tags.warmup_cycle                0                       # Cycle when the warmup percentage was hit.
system.cpu0.dcache.tags.occ_blocks::cpu0.data         1024                       # Average occupied blocks per requestor
system.cpu0.dcache.tags.occ_percent::cpu0.data            1                       # Average percentage of cache occupancy
system.cpu0.dcache.tags.occ_percent::total            1                       # Average percentage of cache occupancy
system.cpu0.dcache.tags.occ_task_id_blocks::1024         1024                       # Occupied blocks per task id
system.cpu0.dcache.tags.age_task_id_blocks_1024::0          135                       # Occupied blocks per task id
system.cpu0.dcache.tags.age_task_id_blocks_1024::1          801                       # Occupied blocks per task id
system.cpu0.dcache.tags.age_task_id_blocks_1024::2           88                       # Occupied blocks per task id
system.cpu0.dcache.tags.occ_task_id_percent::1024            1                       # Percentage of cache occupancy per task id
system.cpu0.dcache.tags.tag_accesses          3401051                       # Number of tag accesses
system.cpu0.dcache.tags.data_accesses         3401051                       # Number of data accesses
system.cpu0.dcache.pwrStateResidencyTicks::UNDEFINED  15267344125                       # Cumulative time (in ticks) in various power states
system.cpu0.dcache.ReadReq_hits::cpu0.data       321857                       # number of ReadReq hits
system.cpu0.dcache.ReadReq_hits::total         321857                       # number of ReadReq hits
system.cpu0.dcache.WriteReq_hits::cpu0.data        31752                       # number of WriteReq hits
system.cpu0.dcache.WriteReq_hits::total         31752                       # number of WriteReq hits
system.cpu0.dcache.demand_hits::cpu0.data       353609                       # number of demand (read+write) hits
system.cpu0.dcache.demand_hits::total          353609                       # number of demand (read+write) hits
system.cpu0.dcache.overall_hits::cpu0.data       353609                       # number of overall hits
system.cpu0.dcache.overall_hits::total         353609                       # number of overall hits
system.cpu0.dcache.ReadReq_misses::cpu0.data       435216                       # number of ReadReq misses
system.cpu0.dcache.ReadReq_misses::total       435216                       # number of ReadReq misses
system.cpu0.dcache.WriteReq_misses::cpu0.data          981                       # number of WriteReq misses
system.cpu0.dcache.WriteReq_misses::total          981                       # number of WriteReq misses
system.cpu0.dcache.demand_misses::cpu0.data       436197                       # number of demand (read+write) misses
system.cpu0.dcache.demand_misses::total        436197                       # number of demand (read+write) misses
system.cpu0.dcache.overall_misses::cpu0.data       436197                       # number of overall misses
system.cpu0.dcache.overall_misses::total       436197                       # number of overall misses
system.cpu0.dcache.ReadReq_miss_latency::cpu0.data  35295285500                       # number of ReadReq miss cycles
system.cpu0.dcache.ReadReq_miss_latency::total  35295285500                       # number of ReadReq miss cycles
system.cpu0.dcache.WriteReq_miss_latency::cpu0.data     42542499                       # number of WriteReq miss cycles
system.cpu0.dcache.WriteReq_miss_latency::total     42542499                       # number of WriteReq miss cycles
system.cpu0.dcache.demand_miss_latency::cpu0.data  35337827999                       # number of demand (read+write) miss cycles
system.cpu0.dcache.demand_miss_latency::total  35337827999                       # number of demand (read+write) miss cycles
system.cpu0.dcache.overall_miss_latency::cpu0.data  35337827999                       # number of overall miss cycles
system.cpu0.dcache.overall_miss_latency::total  35337827999                       # number of overall miss cycles
system.cpu0.dcache.ReadReq_accesses::cpu0.data       757073                       # number of ReadReq accesses(hits+misses)
system.cpu0.dcache.ReadReq_accesses::total       757073                       # number of ReadReq accesses(hits+misses)
system.cpu0.dcache.WriteReq_accesses::cpu0.data        32733                       # number of WriteReq accesses(hits+misses)
system.cpu0.dcache.WriteReq_accesses::total        32733                       # number of WriteReq accesses(hits+misses)
system.cpu0.dcache.demand_accesses::cpu0.data       789806                       # number of demand (read+write) accesses
system.cpu0.dcache.demand_accesses::total       789806                       # number of demand (read+write) accesses
system.cpu0.dcache.overall_accesses::cpu0.data       789806                       # number of overall (read+write) accesses
system.cpu0.dcache.overall_accesses::total       789806                       # number of overall (read+write) accesses
system.cpu0.dcache.ReadReq_miss_rate::cpu0.data     0.574867                       # miss rate for ReadReq accesses
system.cpu0.dcache.ReadReq_miss_rate::total     0.574867                       # miss rate for ReadReq accesses
system.cpu0.dcache.WriteReq_miss_rate::cpu0.data     0.029970                       # miss rate for WriteReq accesses
system.cpu0.dcache.WriteReq_miss_rate::total     0.029970                       # miss rate for WriteReq accesses
system.cpu0.dcache.demand_miss_rate::cpu0.data     0.552284                       # miss rate for demand accesses
system.cpu0.dcache.demand_miss_rate::total     0.552284                       # miss rate for demand accesses
system.cpu0.dcache.overall_miss_rate::cpu0.data     0.552284                       # miss rate for overall accesses
system.cpu0.dcache.overall_miss_rate::total     0.552284                       # miss rate for overall accesses
system.cpu0.dcache.ReadReq_avg_miss_latency::cpu0.data 81098.317847                       # average ReadReq miss latency
system.cpu0.dcache.ReadReq_avg_miss_latency::total 81098.317847                       # average ReadReq miss latency
system.cpu0.dcache.WriteReq_avg_miss_latency::cpu0.data 43366.461774                       # average WriteReq miss latency
system.cpu0.dcache.WriteReq_avg_miss_latency::total 43366.461774                       # average WriteReq miss latency
system.cpu0.dcache.demand_avg_miss_latency::cpu0.data 81013.459513                       # average overall miss latency
system.cpu0.dcache.demand_avg_miss_latency::total 81013.459513                       # average overall miss latency
system.cpu0.dcache.overall_avg_miss_latency::cpu0.data 81013.459513                       # average overall miss latency
system.cpu0.dcache.overall_avg_miss_latency::total 81013.459513                       # average overall miss latency
system.cpu0.dcache.blocked_cycles::no_mshrs        22257                       # number of cycles access was blocked
[...]
system.l2.tags.tag_accesses                   4062626                       # Number of tag accesses
system.l2.tags.data_accesses                  4062626                       # Number of data accesses
system.l2.pwrStateResidencyTicks::UNDEFINED  15267344125                       # Cumulative time (in ticks) in various power states
system.l2.WritebackDirty_hits::writebacks         2385                       # number of WritebackDirty hits
system.l2.WritebackDirty_hits::total             2385                       # number of WritebackDirty hits
system.l2.ReadExReq_hits::cpu0.data               657                       # number of ReadExReq hits
system.l2.ReadExReq_hits::total                   657                       # number of ReadExReq hits
system.l2.ReadSharedReq_hits::cpu0.data         45396                       # number of ReadSharedReq hits
system.l2.ReadSharedReq_hits::total             45396                       # number of ReadSharedReq hits
system.l2.demand_hits::cpu0.data                46053                       # number of demand (read+write) hits
system.l2.demand_hits::total                    46053                       # number of demand (read+write) hits
system.l2.overall_hits::cpu0.data               46053                       # number of overall hits
system.l2.overall_hits::total                   46053                       # number of overall hits
system.l2.ReadExReq_misses::cpu0.data             321                       # number of ReadExReq misses
system.l2.ReadExReq_misses::total                 321                       # number of ReadExReq misses
system.l2.ReadSharedReq_misses::cpu0.data       195453                       # number of ReadSharedReq misses
system.l2.ReadSharedReq_misses::total          195453                       # number of ReadSharedReq misses
system.l2.demand_misses::cpu0.data             195774                       # number of demand (read+write) misses
system.l2.demand_misses::total                 195774                       # number of demand (read+write) misses
system.l2.overall_misses::cpu0.data            195774                       # number of overall misses
system.l2.overall_misses::total                195774                       # number of overall misses
system.l2.ReadExReq_miss_latency::cpu0.data     32377500                       # number of ReadExReq miss cycles
system.l2.ReadExReq_miss_latency::total      32377500                       # number of ReadExReq miss cycles
system.l2.ReadSharedReq_miss_latency::cpu0.data  18531819000                       # number of ReadSharedReq miss cycles
system.l2.ReadSharedReq_miss_latency::total  18531819000                       # number of ReadSharedReq miss cycles
system.l2.demand_miss_latency::cpu0.data  18564196500                       # number of demand (read+write) miss cycles
system.l2.demand_miss_latency::total      18564196500                       # number of demand (read+write) miss cycles
system.l2.overall_miss_latency::cpu0.data  18564196500                       # number of overall miss cycles
system.l2.overall_miss_latency::total     18564196500                       # number of overall miss cycles
system.l2.WritebackDirty_accesses::writebacks         2385                       # number of WritebackDirty accesses(hits+misses)
system.l2.WritebackDirty_accesses::total         2385                       # number of WritebackDirty accesses(hits+misses)
system.l2.ReadExReq_accesses::cpu0.data           978                       # number of ReadExReq accesses(hits+misses)
system.l2.ReadExReq_accesses::total               978                       # number of ReadExReq accesses(hits+misses)
system.l2.ReadSharedReq_accesses::cpu0.data       240849                       # number of ReadSharedReq accesses(hits+misses)
system.l2.ReadSharedReq_accesses::total        240849                       # number of ReadSharedReq accesses(hits+misses)
system.l2.demand_accesses::cpu0.data           241827                       # number of demand (read+write) accesses
system.l2.demand_accesses::total               241827                       # number of demand (read+write) accesses
system.l2.overall_accesses::cpu0.data          241827                       # number of overall (read+write) accesses
system.l2.overall_accesses::total              241827                       # number of overall (read+write) accesses
system.l2.ReadExReq_miss_rate::cpu0.data     0.328221                       # miss rate for ReadExReq accesses
system.l2.ReadExReq_miss_rate::total         0.328221                       # miss rate for ReadExReq accesses
system.l2.ReadSharedReq_miss_rate::cpu0.data     0.811517                       # miss rate for ReadSharedReq accesses
system.l2.ReadSharedReq_miss_rate::total     0.811517                       # miss rate for ReadSharedReq accesses
system.l2.demand_miss_rate::cpu0.data        0.809562                       # miss rate for demand accesses
system.l2.demand_miss_rate::total            0.809562                       # miss rate for demand accesses
system.l2.overall_miss_rate::cpu0.data       0.809562                       # miss rate for overall accesses
system.l2.overall_miss_rate::total           0.809562                       # miss rate for overall accesses
system.l2.ReadExReq_avg_miss_latency::cpu0.data 100864.485981                       # average ReadExReq miss latency
system.l2.ReadExReq_avg_miss_latency::total 100864.485981                       # average ReadExReq miss latency
system.l2.ReadSharedReq_avg_miss_latency::cpu0.data 94814.707372                       # average ReadSharedReq miss latency
system.l2.ReadSharedReq_avg_miss_latency::total 94814.707372                       # average ReadSharedReq miss latency
system.l2.demand_avg_miss_latency::cpu0.data 94824.626866                       # average overall miss latency
system.l2.demand_avg_miss_latency::total 94824.626866                       # average overall miss latency
system.l2.overall_avg_miss_latency::cpu0.data 94824.626866                       # average overall miss latency
system.l2.overall_avg_miss_latency::total 94824.626866                       # average overall miss latency
system.l2.blocked_cycles::no_mshrs                  0                       # number of cycles access was blocked
system.l2.blocked_cycles::no_targets                0                       # number of cycles access was blocked
system.l2.blocked::no_mshrs                         0                       # number of cycles access was blocked
system.l2.blocked::no_targets                       0                       # number of cycles access was blocked
system.l2.avg_blocked_cycles::no_mshrs            nan                       # average number of cycles each access was blocked
system.l2.avg_blocked_cycles::no_targets          nan                       # average number of cycles each access was blocked
system.l2.writebacks::writebacks                  487                       # number of writebacks
system.l2.writebacks::total                       487                       # number of writebacks
system.l2.ReadExReq_mshr_misses::cpu0.data          321                       # number of ReadExReq MSHR misses
system.l2.ReadExReq_mshr_misses::total            321                       # number of ReadExReq MSHR misses
system.l2.ReadSharedReq_mshr_misses::cpu0.data       195453                       # number of ReadSharedReq MSHR misses
system.l2.ReadSharedReq_mshr_misses::total       195453                       # number of ReadSharedReq MSHR misses
system.l2.demand_mshr_misses::cpu0.data        195774                       # number of demand (read+write) MSHR misses
system.l2.demand_mshr_misses::total            195774                       # number of demand (read+write) MSHR misses
system.l2.overall_mshr_misses::cpu0.data       195774                       # number of overall MSHR misses
system.l2.overall_mshr_misses::total           195774                       # number of overall MSHR misses
system.l2.ReadExReq_mshr_miss_latency::cpu0.data     29167500                       # number of ReadExReq MSHR miss cycles
system.l2.ReadExReq_mshr_miss_latency::total     29167500                       # number of ReadExReq MSHR miss cycles
system.l2.ReadSharedReq_mshr_miss_latency::cpu0.data  16577289000                       # number of ReadSharedReq MSHR miss cycles
system.l2.ReadSharedReq_mshr_miss_latency::total  16577289000                       # number of ReadSharedReq MSHR miss cycles
system.l2.demand_mshr_miss_latency::cpu0.data  16606456500                       # number of demand (read+write) MSHR miss cycles
system.l2.demand_mshr_miss_latency::total  16606456500                       # number of demand (read+write) MSHR miss cycles
system.l2.overall_mshr_miss_latency::cpu0.data  16606456500                       # number of overall MSHR miss cycles
system.l2.overall_mshr_miss_latency::total  16606456500                       # number of overall MSHR miss cycles
system.l2.ReadExReq_mshr_miss_rate::cpu0.data     0.328221                       # mshr miss rate for ReadExReq accesses
system.l2.ReadExReq_mshr_miss_rate::total     0.328221                       # mshr miss rate for ReadExReq accesses
system.l2.ReadSharedReq_mshr_miss_rate::cpu0.data     0.811517                       # mshr miss rate for ReadSharedReq accesses
system.l2.ReadSharedReq_mshr_miss_rate::total     0.811517                       # mshr miss rate for ReadSharedReq accesses
system.l2.demand_mshr_miss_rate::cpu0.data     0.809562                       # mshr miss rate for demand accesses
system.l2.demand_mshr_miss_rate::total       0.809562                       # mshr miss rate for demand accesses
system.l2.overall_mshr_miss_rate::cpu0.data     0.809562                       # mshr miss rate for overall accesses
system.l2.overall_mshr_miss_rate::total      0.809562                       # mshr miss rate for overall accesses
system.l2.ReadExReq_avg_mshr_miss_latency::cpu0.data 90864.485981                       # average ReadExReq mshr miss latency
system.l2.ReadExReq_avg_mshr_miss_latency::total 90864.485981                       # average ReadExReq mshr miss latency
system.l2.ReadSharedReq_avg_mshr_miss_latency::cpu0.data 84814.707372                       # average ReadSharedReq mshr miss latency
system.l2.ReadSharedReq_avg_mshr_miss_latency::total 84814.707372                       # average ReadSharedReq mshr miss latency
system.l2.demand_avg_mshr_miss_latency::cpu0.data 84824.626866                       # average overall mshr miss latency
system.l2.demand_avg_mshr_miss_latency::total 84824.626866                       # average overall mshr miss latency
system.l2.overall_avg_mshr_miss_latency::cpu0.data 84824.626866                       # average overall mshr miss latency
system.l2.overall_avg_mshr_miss_latency::total 84824.626866                       # average overall mshr miss latency
system.membus.snoop_filter.tot_requests        391541                       # Total number of requests made to the snoop filter.
system.membus.snoop_filter.hit_single_requests       195774                       # Number of requests hitting in the snoop filter with a single holder of the requested data.
system.membus.snoop_filter.hit_multi_requests            0                       # Number of requests hitting in the snoop filter with multiple (>1) holders of the requested data.
system.membus.snoop_filter.tot_snoops               0                       # Total number of snoops made to the snoop filter.
system.membus.snoop_filter.hit_single_snoops            0                       # Number of snoops hitting in the snoop filter with a single holder of the requested data.
system.membus.snoop_filter.hit_multi_snoops            0                       # Number of snoops hitting in the snoop filter with multiple (>1) holders of the requested data.
system.membus.pwrStateResidencyTicks::UNDEFINED  15267344125                       # Cumulative time (in ticks) in various power states
system.membus.trans_dist::ReadResp             195452                       # Transaction distribution
system.membus.trans_dist::WritebackDirty          487                       # Transaction distribution
system.membus.trans_dist::CleanEvict           195280                       # Transaction distribution
system.membus.trans_dist::ReadExReq               321                       # Transaction distribution
system.membus.trans_dist::ReadExResp              321                       # Transaction distribution
system.membus.trans_dist::ReadSharedReq        195453                       # Transaction distribution
system.membus.pkt_count_system.l2.mem_side::system.mem_ctrls.port       587314                       # Packet count per connected master and slave (bytes)
system.membus.pkt_count_system.l2.mem_side::total       587314                       # Packet count per connected master and slave (bytes)
system.membus.pkt_count::total                 587314                       # Packet count per connected master and slave (bytes)
system.membus.pkt_size_system.l2.mem_side::system.mem_ctrls.port     12560640                       # Cumulative packet size per connected master and slave (bytes)
system.membus.pkt_size_system.l2.mem_side::total     12560640                       # Cumulative packet size per connected master and slave (bytes)
system.membus.pkt_size::total                12560640                       # Cumulative packet size per connected master and slave (bytes)
system.membus.snoops                                0                       # Total snoops (count)
system.membus.snoopTraffic                          0                       # Total snoop traffic (bytes)
system.membus.snoop_fanout::samples            195774                       # Request fanout histogram
system.membus.snoop_fanout::mean                    0                       # Request fanout histogram
system.membus.snoop_fanout::stdev                   0                       # Request fanout histogram
system.membus.snoop_fanout::underflows              0      0.00%      0.00% # Request fanout histogram
system.membus.snoop_fanout::0                  195774    100.00%    100.00% # Request fanout histogram
system.membus.snoop_fanout::1                       0      0.00%    100.00% # Request fanout histogram
system.membus.snoop_fanout::overflows               0      0.00%    100.00% # Request fanout histogram
system.membus.snoop_fanout::min_value               0                       # Request fanout histogram
system.membus.snoop_fanout::max_value               0                       # Request fanout histogram
system.membus.snoop_fanout::total              195774                       # Request fanout histogram
system.membus.reqLayer4.occupancy           460565500                       # Layer occupancy (ticks)
system.membus.reqLayer4.utilization               3.0                       # Layer utilization (%)
system.membus.respLayer1.occupancy         1057795750                       # Layer occupancy (ticks)
system.membus.respLayer1.utilization              6.9                       # Layer utilization (%)
system.tol2bus.snoop_filter.tot_requests       483654                       # Total number of requests made to the snoop filter.
system.tol2bus.snoop_filter.hit_single_requests       241823                       # Number of requests hitting in the snoop filter with a single holder of the requested data.
system.tol2bus.snoop_filter.hit_multi_requests          557                       # Number of requests hitting in the snoop filter with multiple (>1) holders of the requested data.
system.tol2bus.snoop_filter.tot_snoops             11                       # Total number of snoops made to the snoop filter.
system.tol2bus.snoop_filter.hit_single_snoops            9                       # Number of snoops hitting in the snoop filter with a single holder of the requested data.
system.tol2bus.snoop_filter.hit_multi_snoops            2                       # Number of snoops hitting in the snoop filter with multiple (>1) holders of the requested data.
system.tol2bus.pwrStateResidencyTicks::UNDEFINED  15267344125                       # Cumulative time (in ticks) in various power states
system.tol2bus.trans_dist::ReadResp            240849                       # Transaction distribution
system.tol2bus.trans_dist::WritebackDirty         2872                       # Transaction distribution
system.tol2bus.trans_dist::CleanEvict          434733                       # Transaction distribution
system.tol2bus.trans_dist::ReadExReq              978                       # Transaction distribution
system.tol2bus.trans_dist::ReadExResp             978                       # Transaction distribution
system.tol2bus.trans_dist::ReadSharedReq       240849                       # Transaction distribution
system.tol2bus.pkt_count_system.cpu0.dcache.mem_side::system.l2.cpu_side       725481                       # Packet count per connected master and slave (bytes)
system.tol2bus.pkt_count::total                725481                       # Packet count per connected master and slave (bytes)
system.tol2bus.pkt_size_system.cpu0.dcache.mem_side::system.l2.cpu_side     15629568                       # Cumulative packet size per connected master and slave (bytes)
system.tol2bus.pkt_size::total               15629568                       # Cumulative packet size per connected master and slave (bytes)
system.tol2bus.snoops                          195778                       # Total snoops (count)
system.tol2bus.snoopTraffic                     31168                       # Total snoop traffic (bytes)
system.tol2bus.snoop_fanout::samples           437605                       # Request fanout histogram
system.tol2bus.snoop_fanout::mean            0.001293                       # Request fanout histogram
system.tol2bus.snoop_fanout::stdev           0.036068                       # Request fanout histogram
system.tol2bus.snoop_fanout::underflows             0      0.00%      0.00% # Request fanout histogram
system.tol2bus.snoop_fanout::0                 437041     99.87%     99.87% # Request fanout histogram
system.tol2bus.snoop_fanout::1                    562      0.13%    100.00% # Request fanout histogram
system.tol2bus.snoop_fanout::2                      2      0.00%    100.00% # Request fanout histogram
system.tol2bus.snoop_fanout::3                      0      0.00%    100.00% # Request fanout histogram
system.tol2bus.snoop_fanout::4                      0      0.00%    100.00% # Request fanout histogram
system.tol2bus.snoop_fanout::5                      0      0.00%    100.00% # Request fanout histogram
system.tol2bus.snoop_fanout::6                      0      0.00%    100.00% # Request fanout histogram
system.tol2bus.snoop_fanout::7                      0      0.00%    100.00% # Request fanout histogram
system.tol2bus.snoop_fanout::8                      0      0.00%    100.00% # Request fanout histogram
system.tol2bus.snoop_fanout::overflows              0      0.00%    100.00% # Request fanout histogram
system.tol2bus.snoop_fanout::min_value              0                       # Request fanout histogram
system.tol2bus.snoop_fanout::max_value              2                       # Request fanout histogram
system.tol2bus.snoop_fanout::total             437605                       # Request fanout histogram
system.tol2bus.reqLayer0.occupancy          244212000                       # Layer occupancy (ticks)
system.tol2bus.reqLayer0.utilization              1.6                       # Layer utilization (%)
system.tol2bus.respLayer1.occupancy         362740500                       # Layer occupancy (ticks)
system.tol2bus.respLayer1.utilization             2.4                       # Layer utilization (%)

---------- End Simulation Statistics   ----------
