
---------- Begin Simulation Statistics ----------
sim_seconds                                  0.015267                       # Number of seconds simulated
sim_ticks                                 15267344125                       # Number of ticks simulated
final_tick                               10442863381500                       # Number of ticks from beginning of simulation (restored from checkpoints and never reset)
sim_freq                                 1000000000000                       # Frequency of simulated ticks
host_inst_rate                               66173718                       # Simulator instruction rate (inst/s)
host_op_rate                                123583693                       # Simulator op (including micro ops) rate (op/s)
host_tick_rate                              163873182                       # Simulator tick rate (ticks/s)
host_mem_usage                                1248976                       # Number of bytes of host memory used
host_seconds                                    93.17                       # Real time elapsed on the host
sim_insts                                  6165112067                       # Number of instructions simulated
sim_ops                                   11513747495                       # Number of ops (including micro ops) simulated
system.voltage_domain.voltage                       1                       # Voltage in Volts
system.clk_domain.clock                          1000                       # Clock period in ticks
system.mem_ctrls.pwrStateResidencyTicks::UNDEFINED  15267344125                       # Cumulative time (in ticks) in various power states
system.mem_ctrls.bytes_read::cpu0.inst          24128                       # Number of bytes read from this memory
system.mem_ctrls.bytes_read::cpu0.data       10035456                       # Number of bytes read from this memory
system.mem_ctrls.bytes_read::total           10059584                       # Number of bytes read from this memory
system.mem_ctrls.bytes_inst_read::cpu0.inst        24128                       # Number of instructions bytes read from this memory
system.mem_ctrls.bytes_inst_read::total         24128                       # Number of instructions bytes read from this memory
system.mem_ctrls.bytes_written::writebacks      9988160                       # Number of bytes written to this memory
system.mem_ctrls.bytes_written::total         9988160                       # Number of bytes written to this memory
system.mem_ctrls.num_reads::cpu0.inst             377                       # Number of read requests responded to by this memory
system.mem_ctrls.num_reads::cpu0.data          156804                       # Number of read requests responded to by this memory
system.mem_ctrls.num_reads::total              157181                       # Number of read requests responded to by this memory
system.mem_ctrls.num_writes::writebacks        156065                       # Number of write requests responded to by this memory
system.mem_ctrls.num_writes::total             156065                       # Number of write requests responded to by this memory
system.mem_ctrls.bw_read::cpu0.inst           1580367                       # Total read bandwidth from this memory (bytes/s)
system.mem_ctrls.bw_read::cpu0.data         657315111                       # Total read bandwidth from this memory (bytes/s)
system.mem_ctrls.bw_read::total             658895478                       # Total read bandwidth from this memory (bytes/s)
system.mem_ctrls.bw_inst_read::cpu0.inst      1580367                       # Instruction read bandwidth from this memory (bytes/s)
system.mem_ctrls.bw_inst_read::total          1580367                       # Instruction read bandwidth from this memory (bytes/s)
system.mem_ctrls.bw_write::writebacks       654217257                       # Write bandwidth from this memory (bytes/s)
system.mem_ctrls.bw_write::total            654217257                       # Write bandwidth from this memory (bytes/s)
system.mem_ctrls.bw_total::writebacks       654217257                       # Total bandwidth to/from this memory (bytes/s)
system.mem_ctrls.bw_total::cpu0.inst          1580367                       # Total bandwidth to/from this memory (bytes/s)
system.mem_ctrls.bw_total::cpu0.data        657315111                       # Total bandwidth to/from this memory (bytes/s)
system.mem_ctrls.bw_total::total           1313112735                       # Total bandwidth to/from this memory (bytes/s)
system.mem_ctrls.readReqs                      157180                       # Number of read requests accepted
system.mem_ctrls.writeReqs                     156065                       # Number of write requests accepted
system.mem_ctrls.readBursts                    157180                       # Number of DRAM read bursts, including those serviced by the write queue
system.mem_ctrls.writeBursts                   156065                       # Number of DRAM write bursts, including those merged in the write queue
system.mem_ctrls.bytesReadDRAM               10059520                       # Total number of bytes read from DRAM
system.mem_ctrls.bytesReadWrQ                       0                       # Total number of bytes read from write queue
system.mem_ctrls.bytesWritten                 9988288                       # Total number of bytes written to DRAM
system.mem_ctrls.bytesReadSys                10059520                       # Total read bytes from the system interface side
system.mem_ctrls.bytesWrittenSys              9988160                       # Total written bytes from the system interface side
system.mem_ctrls.servicedByWrQ                      0                       # Number of DRAM read bursts serviced by the write queue
system.mem_ctrls.mergedWrBursts                     0                       # Number of DRAM write bursts merged with an existing one
system.mem_ctrls.neitherReadNorWriteReqs            0                       # Number of requests that are neither read nor write
system.mem_ctrls.perBankRdBursts::0             10058                       # Per bank write bursts
system.mem_ctrls.perBankRdBursts::1             10411                       # Per bank write bursts
system.mem_ctrls.perBankRdBursts::2             10267                       # Per bank write bursts
system.mem_ctrls.perBankRdBursts::3             10199                       # Per bank write bursts
system.mem_ctrls.perBankRdBursts::4              9841                       # Per bank write bursts
system.mem_ctrls.perBankRdBursts::5              9369                       # Per bank write bursts
system.mem_ctrls.perBankRdBursts::6              9685                       # Per bank write bursts
system.mem_ctrls.perBankRdBursts::7              9654                       # Per bank write bursts
system.mem_ctrls.perBankRdBursts::8              9459                       # Per bank write bursts
system.mem_ctrls.perBankRdBursts::9              9508                       # Per bank write bursts
system.mem_ctrls.perBankRdBursts::10             9897                       # Per bank write bursts
system.mem_ctrls.perBankRdBursts::11             9650                       # Per bank write bursts
system.mem_ctrls.perBankRdBursts::12             9452                       # Per bank write bursts
system.mem_ctrls.perBankRdBursts::13             9605                       # Per bank write bursts
system.mem_ctrls.perBankRdBursts::14            10077                       # Per bank write bursts
system.mem_ctrls.perBankRdBursts::15            10048                       # Per bank write bursts
system.mem_ctrls.perBankWrBursts::0              9999                       # Per bank write bursts
system.mem_ctrls.perBankWrBursts::1             10385                       # Per bank write bursts
system.mem_ctrls.perBankWrBursts::2             10106                       # Per bank write bursts
system.mem_ctrls.perBankWrBursts::3             10138                       # Per bank write bursts
system.mem_ctrls.perBankWrBursts::4              9758                       # Per bank write bursts
system.mem_ctrls.perBankWrBursts::5              9356                       # Per bank write bursts
system.mem_ctrls.perBankWrBursts::6              9589                       # Per bank write bursts
system.mem_ctrls.perBankWrBursts::7              9422                       # Per bank write bursts
system.mem_ctrls.perBankWrBursts::8              9334                       # Per bank write bursts
system.mem_ctrls.perBankWrBursts::9              9504                       # Per bank write bursts
system.mem_ctrls.perBankWrBursts::10             9877                       # Per bank write bursts
system.mem_ctrls.perBankWrBursts::11             9635                       # Per bank write bursts
system.mem_ctrls.perBankWrBursts::12             9376                       # Per bank write bursts
system.mem_ctrls.perBankWrBursts::13             9574                       # Per bank write bursts
system.mem_ctrls.perBankWrBursts::14            10027                       # Per bank write bursts
system.mem_ctrls.perBankWrBursts::15             9987                       # Per bank write bursts
system.mem_ctrls.numRdRetry                         0                       # Number of times read queue was full causing retry
system.mem_ctrls.numWrRetry                         0                       # Number of times write queue was full causing retry
system.mem_ctrls.totGap                   15267295000                       # Total gap between requests
system.mem_ctrls.readPktSize::0                     0                       # Read request sizes (log2)
system.mem_ctrls.readPktSize::1                     0                       # Read request sizes (log2)
system.mem_ctrls.readPktSize::2                     0                       # Read request sizes (log2)
system.mem_ctrls.readPktSize::3                     0                       # Read request sizes (log2)
system.mem_ctrls.readPktSize::4                     0                       # Read request sizes (log2)
system.mem_ctrls.readPktSize::5                     0                       # Read request sizes (log2)
system.mem_ctrls.readPktSize::6                157180                       # Read request sizes (log2)
system.mem_ctrls.writePktSize::0                    0                       # Write request sizes (log2)
system.mem_ctrls.writePktSize::1                    0                       # Write request sizes (log2)
system.mem_ctrls.writePktSize::2                    0                       # Write request sizes (log2)
system.mem_ctrls.writePktSize::3                    0                       # Write request sizes (log2)
system.mem_ctrls.writePktSize::4                    0                       # Write request sizes (log2)
system.mem_ctrls.writePktSize::5                    0                       # Write request sizes (log2)
system.mem_ctrls.writePktSize::6               156065                       # Write request sizes (log2)
system.mem_ctrls.rdQLenPdf::0                  156046                       # What read queue length does an incoming req see
system.mem_ctrls.rdQLenPdf::1                     718                       # What read queue length does an incoming req see
system.mem_ctrls.rdQLenPdf::2                     278                       # What read queue length does an incoming req see
system.mem_ctrls.rdQLenPdf::3                     110                       # What read queue length does an incoming req see
system.mem_ctrls.rdQLenPdf::4                      23                       # What read queue length does an incoming req see
system.mem_ctrls.rdQLenPdf::5                       4                       # What read queue length does an incoming req see
system.mem_ctrls.rdQLenPdf::6                       1                       # What read queue length does an incoming req see
system.mem_ctrls.rdQLenPdf::7                       0                       # What read queue length does an incoming req see
system.mem_ctrls.rdQLenPdf::8                       0                       # What read queue length does an incoming req see
system.mem_ctrls.rdQLenPdf::9                       0                       # What read queue length does an incoming req see
system.mem_ctrls.rdQLenPdf::10                      0                       # What read queue length does an incoming req see
system.mem_ctrls.rdQLenPdf::11                      0                       # What read queue length does an incoming req see
system.mem_ctrls.rdQLenPdf::12                      0                       # What read queue length does an incoming req see
system.mem_ctrls.rdQLenPdf::13                      0                       # What read queue length does an incoming req see
system.mem_ctrls.rdQLenPdf::14                      0                       # What read queue length does an incoming req see
system.mem_ctrls.rdQLenPdf::15                      0                       # What read queue length does an incoming req see
system.mem_ctrls.rdQLenPdf::16                      0                       # What read queue length does an incoming req see
system.mem_ctrls.rdQLenPdf::17                      0                       # What read queue length does an incoming req see
system.mem_ctrls.rdQLenPdf::18                      0                       # What read queue length does an incoming req see
system.mem_ctrls.rdQLenPdf::19                      0                       # What read queue length does an incoming req see
system.mem_ctrls.rdQLenPdf::20                      0                       # What read queue length does an incoming req see
system.mem_ctrls.rdQLenPdf::21                      0                       # What read queue length does an incoming req see
system.mem_ctrls.rdQLenPdf::22                      0                       # What read queue length does an incoming req see
system.mem_ctrls.rdQLenPdf::23                      0                       # What read queue length does an incoming req see
system.mem_ctrls.rdQLenPdf::24                      0                       # What read queue length does an incoming req see
system.mem_ctrls.rdQLenPdf::25                      0                       # What read queue length does an incoming req see
system.mem_ctrls.rdQLenPdf::26                      0                       # What read queue length does an incoming req see
system.mem_ctrls.rdQLenPdf::27                      0                       # What read queue length does an incoming req see
system.mem_ctrls.rdQLenPdf::28                      0                       # What read queue length does an incoming req see
system.mem_ctrls.rdQLenPdf::29                      0                       # What read queue length does an incoming req see
system.mem_ctrls.rdQLenPdf::30                      0                       # What read queue length does an incoming req see
system.mem_ctrls.rdQLenPdf::31                      0                       # What read queue length does an incoming req see
system.mem_ctrls.wrQLenPdf::0                       0                       # What write queue length does an incoming req see
system.mem_ctrls.wrQLenPdf::1                       0                       # What write queue length does an incoming req see
system.mem_ctrls.wrQLenPdf::2                       0                       # What write queue length does an incoming req see
system.mem_ctrls.wrQLenPdf::3                       0                       # What write queue length does an incoming req see
system.mem_ctrls.wrQLenPdf::4                       0                       # What write queue length does an incoming req see
system.mem_ctrls.wrQLenPdf::5                       0                       # What write queue length does an incoming req see
system.mem_ctrls.wrQLenPdf::6                       0                       # What write queue length does an incoming req see
system.mem_ctrls.wrQLenPdf::7                       0                       # What write queue length does an incoming req see
system.mem_ctrls.wrQLenPdf::8                       0                       # What write queue length does an incoming req see
system.mem_ctrls.wrQLenPdf::9                       0                       # What write queue length does an incoming req see
system.mem_ctrls.wrQLenPdf::10                      0                       # What write queue length does an incoming req see
system.mem_ctrls.wrQLenPdf::11                      0                       # What write queue length does an incoming req see
system.mem_ctrls.wrQLenPdf::12                      0                       # What write queue length does an incoming req see
system.mem_ctrls.wrQLenPdf::13                      0                       # What write queue length does an incoming req see
system.mem_ctrls.wrQLenPdf::14                      0                       # What write queue length does an incoming req see
system.mem_ctrls.wrQLenPdf::15                     23                       # What write queue length does an incoming req see
system.mem_ctrls.wrQLenPdf::16                     29                       # What write queue length does an incoming req see
system.mem_ctrls.wrQLenPdf::17                   9650                       # What write queue length does an incoming req see
system.mem_ctrls.wrQLenPdf::18                   9685                       # What write queue length does an incoming req see
system.mem_ctrls.wrQLenPdf::19                   9724                       # What write queue length does an incoming req see
system.mem_ctrls.wrQLenPdf::20                   9749                       # What write queue length does an incoming req see
system.mem_ctrls.wrQLenPdf::21                   9755                       # What write queue length does an incoming req see
system.mem_ctrls.wrQLenPdf::22                   9765                       # What write queue length does an incoming req see
system.mem_ctrls.wrQLenPdf::23                   9759                       # What write queue length does an incoming req see
system.mem_ctrls.wrQLenPdf::24                   9764                       # What write queue length does an incoming req see
system.mem_ctrls.wrQLenPdf::25                   9764                       # What write queue length does an incoming req see
system.mem_ctrls.wrQLenPdf::26                   9758                       # What write queue length does an incoming req see
system.mem_ctrls.wrQLenPdf::27                   9769                       # What write queue length does an incoming req see
system.mem_ctrls.wrQLenPdf::28                   9775                       # What write queue length does an incoming req see
system.mem_ctrls.wrQLenPdf::29                   9781                       # What write queue length does an incoming req see
system.mem_ctrls.wrQLenPdf::30                   9782                       # What write queue length does an incoming req see
system.mem_ctrls.wrQLenPdf::31                   9758                       # What write queue length does an incoming req see
system.mem_ctrls.wrQLenPdf::32                   9754                       # What write queue length does an incoming req see
system.mem_ctrls.wrQLenPdf::33                      9                       # What write queue length does an incoming req see
system.mem_ctrls.wrQLenPdf::34                      4                       # What write queue length does an incoming req see
system.mem_ctrls.wrQLenPdf::35                      2                       # What write queue length does an incoming req see
system.mem_ctrls.wrQLenPdf::36                      1                       # What write queue length does an incoming req see
system.mem_ctrls.wrQLenPdf::37                      1                       # What write queue length does an incoming req see
system.mem_ctrls.wrQLenPdf::38                      1                       # What write queue length does an incoming req see
system.mem_ctrls.wrQLenPdf::39                      1                       # What write queue length does an incoming req see
system.mem_ctrls.wrQLenPdf::40                      1                       # What write queue length does an incoming req see
system.mem_ctrls.wrQLenPdf::41                      1                       # What write queue length does an incoming req see
system.mem_ctrls.wrQLenPdf::42                      0                       # What write queue length does an incoming req see
system.mem_ctrls.wrQLenPdf::43                      0                       # What write queue length does an incoming req see
system.mem_ctrls.wrQLenPdf::44                      0                       # What write queue length does an incoming req see
system.mem_ctrls.wrQLenPdf::45                      0                       # What write queue length does an incoming req see
system.mem_ctrls.wrQLenPdf::46                      0                       # What write queue length does an incoming req see
system.mem_ctrls.wrQLenPdf::47                      0                       # What write queue length does an incoming req see
system.mem_ctrls.wrQLenPdf::48                      0                       # What write queue length does an incoming req see
system.mem_ctrls.wrQLenPdf::49                      0                       # What write queue length does an incoming req see
system.mem_ctrls.wrQLenPdf::50                      0                       # What write queue length does an incoming req see
system.mem_ctrls.wrQLenPdf::51                      0                       # What write queue length does an incoming req see
system.mem_ctrls.wrQLenPdf::52                      0                       # What write queue length does an incoming req see
system.mem_ctrls.wrQLenPdf::53                      0                       # What write queue length does an incoming req see
system.mem_ctrls.wrQLenPdf::54                      0                       # What write queue length does an incoming req see
system.mem_ctrls.wrQLenPdf::55                      0                       # What write queue length does an incoming req see
system.mem_ctrls.wrQLenPdf::56                      0                       # What write queue length does an incoming req see
system.mem_ctrls.wrQLenPdf::57                      0                       # What write queue length does an incoming req see
system.mem_ctrls.wrQLenPdf::58                      0                       # What write queue length does an incoming req see
system.mem_ctrls.wrQLenPdf::59                      0                       # What write queue length does an incoming req see
system.mem_ctrls.wrQLenPdf::60                      0                       # What write queue length does an incoming req see
system.mem_ctrls.wrQLenPdf::61                      0                       # What write queue length does an incoming req see
system.mem_ctrls.wrQLenPdf::62                      0                       # What write queue length does an incoming req see
system.mem_ctrls.wrQLenPdf::63                      0                       # What write queue length does an incoming req see
system.mem_ctrls.bytesPerActivate::samples        27287                       # Bytes accessed per row activation
system.mem_ctrls.bytesPerActivate::mean    734.713527                       # Bytes accessed per row activation
system.mem_ctrls.bytesPerActivate::gmean   571.217880                       # Bytes accessed per row activation
system.mem_ctrls.bytesPerActivate::stdev   361.900723                       # Bytes accessed per row activation
system.mem_ctrls.bytesPerActivate::0-127         2000      7.33%      7.33% # Bytes accessed per row activation
system.mem_ctrls.bytesPerActivate::128-255         2694      9.87%     17.20% # Bytes accessed per row activation
system.mem_ctrls.bytesPerActivate::256-383         1763      6.46%     23.66% # Bytes accessed per row activation
system.mem_ctrls.bytesPerActivate::384-511         1353      4.96%     28.62% # Bytes accessed per row activation
system.mem_ctrls.bytesPerActivate::512-639         1280      4.69%     33.31% # Bytes accessed per row activation
system.mem_ctrls.bytesPerActivate::640-767         1169      4.28%     37.60% # Bytes accessed per row activation
system.mem_ctrls.bytesPerActivate::768-895         1617      5.93%     43.52% # Bytes accessed per row activation
system.mem_ctrls.bytesPerActivate::896-1023         1496      5.48%     49.01% # Bytes accessed per row activation
system.mem_ctrls.bytesPerActivate::1024-1151        13915     50.99%    100.00% # Bytes accessed per row activation
system.mem_ctrls.bytesPerActivate::total        27287                       # Bytes accessed per row activation
system.mem_ctrls.rdPerTurnAround::samples         9746                       # Reads before turning the bus around for writes
system.mem_ctrls.rdPerTurnAround::mean      16.127847                       # Reads before turning the bus around for writes
system.mem_ctrls.rdPerTurnAround::gmean     16.076531                       # Reads before turning the bus around for writes
system.mem_ctrls.rdPerTurnAround::stdev      1.581924                       # Reads before turning the bus around for writes
system.mem_ctrls.rdPerTurnAround::4-7              10      0.10%      0.10% # Reads before turning the bus around for writes
system.mem_ctrls.rdPerTurnAround::8-11             40      0.41%      0.51% # Reads before turning the bus around for writes
system.mem_ctrls.rdPerTurnAround::12-15            97      1.00%      1.51% # Reads before turning the bus around for writes
system.mem_ctrls.rdPerTurnAround::16-19          9451     96.97%     98.48% # Reads before turning the bus around for writes
system.mem_ctrls.rdPerTurnAround::20-23           104      1.07%     99.55% # Reads before turning the bus around for writes
system.mem_ctrls.rdPerTurnAround::24-27            24      0.25%     99.79% # Reads before turning the bus around for writes
system.mem_ctrls.rdPerTurnAround::28-31             6      0.06%     99.86% # Reads before turning the bus around for writes
system.mem_ctrls.rdPerTurnAround::32-35             2      0.02%     99.88% # Reads before turning the bus around for writes
system.mem_ctrls.rdPerTurnAround::36-39             2      0.02%     99.90% # Reads before turning the bus around for writes
system.mem_ctrls.rdPerTurnAround::40-43             2      0.02%     99.92% # Reads before turning the bus around for writes
system.mem_ctrls.rdPerTurnAround::44-47             2      0.02%     99.94% # Reads before turning the bus around for writes
system.mem_ctrls.rdPerTurnAround::48-51             4      0.04%     99.98% # Reads before turning the bus around for writes
system.mem_ctrls.rdPerTurnAround::64-67             1      0.01%     99.99% # Reads before turning the bus around for writes
system.mem_ctrls.rdPerTurnAround::72-75             1      0.01%    100.00% # Reads before turning the bus around for writes
system.mem_ctrls.rdPerTurnAround::total          9746                       # Reads before turning the bus around for writes
system.mem_ctrls.wrPerTurnAround::samples         9746                       # Writes before turning the bus around for reads
system.mem_ctrls.wrPerTurnAround::mean      16.013441                       # Writes before turning the bus around for reads
system.mem_ctrls.wrPerTurnAround::gmean     16.011730                       # Writes before turning the bus around for reads
system.mem_ctrls.wrPerTurnAround::stdev      0.265946                       # Writes before turning the bus around for reads
system.mem_ctrls.wrPerTurnAround::16             9710     99.63%     99.63% # Writes before turning the bus around for reads
system.mem_ctrls.wrPerTurnAround::17                4      0.04%     99.67% # Writes before turning the bus around for reads
system.mem_ctrls.wrPerTurnAround::18                8      0.08%     99.75% # Writes before turning the bus around for reads
system.mem_ctrls.wrPerTurnAround::19                7      0.07%     99.83% # Writes before turning the bus around for reads
system.mem_ctrls.wrPerTurnAround::20               10      0.10%     99.93% # Writes before turning the bus around for reads
system.mem_ctrls.wrPerTurnAround::21                2      0.02%     99.95% # Writes before turning the bus around for reads
system.mem_ctrls.wrPerTurnAround::22                3      0.03%     99.98% # Writes before turning the bus around for reads
system.mem_ctrls.wrPerTurnAround::23                1      0.01%     99.99% # Writes before turning the bus around for reads
system.mem_ctrls.wrPerTurnAround::31                1      0.01%    100.00% # Writes before turning the bus around for reads
system.mem_ctrls.wrPerTurnAround::total          9746                       # Writes before turning the bus around for reads
system.mem_ctrls.totQLat                   2893189750                       # Total ticks spent queuing
system.mem_ctrls.totMemAccLat              5840314750                       # Total ticks spent from burst creation until serviced by the DRAM
system.mem_ctrls.totBusLat                  785900000                       # Total ticks spent in databus transfers
system.mem_ctrls.avgQLat                     18406.86                       # Average queueing delay per DRAM burst
system.mem_ctrls.avgBusLat                    5000.00                       # Average bus latency per DRAM burst
system.mem_ctrls.avgMemAccLat                37156.86                       # Average memory access latency per DRAM burst
system.mem_ctrls.avgRdBW                       658.89                       # Average DRAM read bandwidth in MiByte/s
system.mem_ctrls.avgWrBW                       654.23                       # Average achieved write bandwidth in MiByte/s
system.mem_ctrls.avgRdBWSys                    658.89                       # Average system read bandwidth in MiByte/s
system.mem_ctrls.avgWrBWSys                    654.22                       # Average system write bandwidth in MiByte/s
system.mem_ctrls.peakBW                      12800.00                       # Theoretical peak bandwidth in MiByte/s
system.mem_ctrls.busUtil                        10.26                       # Data bus utilization in percentage
system.mem_ctrls.busUtilRead                     5.15                       # Data bus utilization in percentage for reads
system.mem_ctrls.busUtilWrite                    5.11                       # Data bus utilization in percentage for writes
system.mem_ctrls.avgRdQLen                       1.01                       # Average read queue length when enqueuing
system.mem_ctrls.avgWrQLen                      26.15                       # Average write queue length when enqueuing
system.mem_ctrls.readRowHits                   143706                       # Number of row buffer hits during reads
system.mem_ctrls.writeRowHits                  142254                       # Number of row buffer hits during writes
system.mem_ctrls.readRowHitRate                 91.43                       # Row buffer hit rate for reads
system.mem_ctrls.writeRowHitRate                91.15                       # Row buffer hit rate for writes
system.mem_ctrls.avgGap                      48739.15                       # Average gap between requests
system.mem_ctrls.pageHitRate                    91.29                       # Row buffer hit rate, read and write combined
system.mem_ctrls_0.actEnergy                 98674800                       # Energy for activate commands per rank (pJ)
system.mem_ctrls_0.preEnergy                 52450695                       # Energy for precharge commands per rank (pJ)
system.mem_ctrls_0.readEnergy               567515760                       # Energy for read commands per rank (pJ)
system.mem_ctrls_0.writeEnergy              411090660                       # Energy for write commands per rank (pJ)
system.mem_ctrls_0.refreshEnergy         760924320.000000                       # Energy for refresh commands per rank (pJ)
system.mem_ctrls_0.actBackEnergy           1526606490                       # Energy for active background per rank (pJ)
system.mem_ctrls_0.preBackEnergy             65079840                       # Energy for precharge background per rank (pJ)
system.mem_ctrls_0.actPowerDownEnergy      2098293690                       # Energy for active power-down per rank (pJ)
system.mem_ctrls_0.prePowerDownEnergy       329229600                       # Energy for precharge power-down per rank (pJ)
system.mem_ctrls_0.selfRefreshEnergy       1560131040                       # Energy for self refresh per rank (pJ)
system.mem_ctrls_0.totalEnergy             7469996895                       # Total energy per rank (pJ)
system.mem_ctrls_0.averagePower            489.279395                       # Core power per rank (mW)
system.mem_ctrls_0.totalIdleTime          11749957250                       # Total Idle time Per DRAM Rank
system.mem_ctrls_0.memoryStateTime::IDLE     48289500                       # Time in different power states
system.mem_ctrls_0.memoryStateTime::REF     322522000                       # Time in different power states
system.mem_ctrls_0.memoryStateTime::SREF   6291156250                       # Time in different power states
system.mem_ctrls_0.memoryStateTime::PRE_PDN    857432000                       # Time in different power states
system.mem_ctrls_0.memoryStateTime::ACT    3146556125                       # Time in different power states
system.mem_ctrls_0.memoryStateTime::ACT_PDN   4601388250                       # Time in different power states
system.mem_ctrls_1.actEnergy                 96154380                       # Energy for activate commands per rank (pJ)
system.mem_ctrls_1.preEnergy                 51103470                       # Energy for precharge commands per rank (pJ)
system.mem_ctrls_1.readEnergy               554749440                       # Energy for read commands per rank (pJ)
system.mem_ctrls_1.writeEnergy              403579080                       # Energy for write commands per rank (pJ)
system.mem_ctrls_1.refreshEnergy         742485120.000000                       # Energy for refresh commands per rank (pJ)
system.mem_ctrls_1.actBackEnergy           1485494100                       # Energy for active background per rank (pJ)
system.mem_ctrls_1.preBackEnergy             63655680                       # Energy for precharge background per rank (pJ)
system.mem_ctrls_1.actPowerDownEnergy      2057179020                       # Energy for active power-down per rank (pJ)
system.mem_ctrls_1.prePowerDownEnergy       314889120                       # Energy for precharge power-down per rank (pJ)
system.mem_ctrls_1.selfRefreshEnergy       1612156860                       # Energy for self refresh per rank (pJ)
system.mem_ctrls_1.totalEnergy             7381565130                       # Total energy per rank (pJ)
system.mem_ctrls_1.averagePower            483.487178                       # Core power per rank (mW)
system.mem_ctrls_1.totalIdleTime          11843629375                       # Total Idle time Per DRAM Rank
system.mem_ctrls_1.memoryStateTime::IDLE     44562750                       # Time in different power states
system.mem_ctrls_1.memoryStateTime::REF     314806000                       # Time in different power states
system.mem_ctrls_1.memoryStateTime::SREF   6512265000                       # Time in different power states
system.mem_ctrls_1.memoryStateTime::PRE_PDN    819986375                       # Time in different power states
system.mem_ctrls_1.memoryStateTime::ACT    3064307250                       # Time in different power states
system.mem_ctrls_1.memoryStateTime::ACT_PDN   4511416750                       # Time in different power states
system.pwrStateResidencyTicks::UNDEFINED  15267344125                       # Cumulative time (in ticks) in various power states
system.cpu0.branchPred.lookups                1266624                       # Number of BP lookups
system.cpu0.branchPred.condPredicted          1266624                       # Number of conditional branches predicted
system.cpu0.branchPred.condIncorrect             7582                       # Number of conditional branches incorrect
system.cpu0.branchPred.BTBLookups             1257880                       # Number of BTB lookups
system.cpu0.branchPred.BTBHits                      0                       # Number of BTB hits
system.cpu0.branchPred.BTBCorrect                   0                       # Number of correct BTB predictions (this stat may not work properly.
system.cpu0.branchPred.BTBHitPct             0.000000                       # BTB Hit Percentage
system.cpu0.branchPred.usedRAS                   4487                       # Number of times the RAS was used to get a target.
system.cpu0.branchPred.RASInCorrect               969                       # Number of incorrect RAS predictions.
system.cpu0.branchPred.indirectLookups        1257880                       # Number of indirect predictor lookups.
system.cpu0.branchPred.indirectHits           1216538                       # Number of indirect target hits.
system.cpu0.branchPred.indirectMisses           41342                       # Number of indirect misses.
system.cpu0.branchPredindirectMispredicted         5385                       # Number of mispredicted indirect branches.
system.cpu_voltage_domain.voltage                   1                       # Voltage in Volts
system.cpu_clk_domain.clock                       500                       # Clock period in ticks
system.cpu0.dtb.walker.pwrStateResidencyTicks::UNDEFINED  15267344125                       # Cumulative time (in ticks) in various power states
system.cpu0.dtb.rdAccesses                     351946                       # TLB accesses on read requests
system.cpu0.dtb.wrAccesses                    1249514                       # TLB accesses on write requests
system.cpu0.dtb.rdMisses                          929                       # TLB misses on read requests
system.cpu0.dtb.wrMisses                         2703                       # TLB misses on write requests
system.cpu0.apic_clk_domain.clock                8000                       # Clock period in ticks
system.cpu0.interrupts.pwrStateResidencyTicks::UNDEFINED  15267344125                       # Cumulative time (in ticks) in various power states
system.cpu0.itb.walker.pwrStateResidencyTicks::UNDEFINED  15267344125                       # Cumulative time (in ticks) in various power states
system.cpu0.itb.rdAccesses                          0                       # TLB accesses on read requests
system.cpu0.itb.wrAccesses                      54219                       # TLB accesses on write requests
system.cpu0.itb.rdMisses                            0                       # TLB misses on read requests
system.cpu0.itb.wrMisses                          410                       # TLB misses on write requests
system.cpu0.workload.numSyscalls                   67                       # Number of system calls
system.cpu0.pwrStateResidencyTicks::ON    15267344125                       # Cumulative time (in ticks) in various power states
system.cpu0.numCycles                        30534689                       # number of cpu cycles simulated
system.cpu0.numWorkItemsStarted                     0                       # number of work items this cpu started
system.cpu0.numWorkItemsCompleted                   0                       # number of work items this cpu completed
system.cpu0.fetch.icacheStallCycles             78323                       # Number of cycles fetch is stalled on an Icache miss
system.cpu0.fetch.Insts                       5563005                       # Number of instructions fetch has processed
system.cpu0.fetch.Branches                    1266624                       # Number of branches that fetch encountered
system.cpu0.fetch.predictedBranches           1221025                       # Number of branches that fetch has predicted taken
system.cpu0.fetch.Cycles                     30413388                       # Number of cycles fetch has run and was not squashing or blocked
system.cpu0.fetch.SquashCycles                  16058                       # Number of cycles fetch has spent squashing
system.cpu0.fetch.TlbCycles                         2                       # Number of cycles fetch has spent waiting for tlb
system.cpu0.fetch.MiscStallCycles                 285                       # Number of cycles fetch has spent waiting on interrupts, or bad addresses, or out of MSHRs
system.cpu0.fetch.PendingTrapStallCycles         1862                       # Number of stall cycles due to pending traps
system.cpu0.fetch.CacheLines                    53923                       # Number of cache lines fetched
system.cpu0.fetch.IcacheSquashes                 2207                       # Number of outstanding Icache misses that were squashed
system.cpu0.fetch.rateDist::samples          30501889                       # Number of instructions fetched each cycle (Total)
system.cpu0.fetch.rateDist::mean             0.367648                       # Number of instructions fetched each cycle (Total)
system.cpu0.fetch.rateDist::stdev            1.624932                       # Number of instructions fetched each cycle (Total)
system.cpu0.fetch.rateDist::underflows              0      0.00%      0.00% # Number of instructions fetched each cycle (Total)
system.cpu0.fetch.rateDist::0                28869038     94.65%     94.65% # Number of instructions fetched each cycle (Total)
system.cpu0.fetch.rateDist::1                   40292      0.13%     94.78% # Number of instructions fetched each cycle (Total)
system.cpu0.fetch.rateDist::2                   42885      0.14%     94.92% # Number of instructions fetched each cycle (Total)
system.cpu0.fetch.rateDist::3                  225145      0.74%     95.66% # Number of instructions fetched each cycle (Total)
system.cpu0.fetch.rateDist::4                   27749      0.09%     95.75% # Number of instructions fetched each cycle (Total)
system.cpu0.fetch.rateDist::5                    9333      0.03%     95.78% # Number of instructions fetched each cycle (Total)
system.cpu0.fetch.rateDist::6                    9775      0.03%     95.81% # Number of instructions fetched each cycle (Total)
system.cpu0.fetch.rateDist::7                   25214      0.08%     95.89% # Number of instructions fetched each cycle (Total)
system.cpu0.fetch.rateDist::8                 1252458      4.11%    100.00% # Number of instructions fetched each cycle (Total)
system.cpu0.fetch.rateDist::overflows               0      0.00%    100.00% # Number of instructions fetched each cycle (Total)
system.cpu0.fetch.rateDist::min_value               0                       # Number of instructions fetched each cycle (Total)
system.cpu0.fetch.rateDist::max_value               8                       # Number of instructions fetched each cycle (Total)
system.cpu0.fetch.rateDist::total            30501889                       # Number of instructions fetched each cycle (Total)
system.cpu0.fetch.branchRate                 0.041481                       # Number of branch fetches per cycle
system.cpu0.fetch.rate                       0.182186                       # Number of inst fetches per cycle
system.cpu0.decode.IdleCycles                  396184                       # Number of cycles decode is idle
system.cpu0.decode.BlockedCycles             28691544                       # Number of cycles decode is blocked
system.cpu0.decode.RunCycles                   644024                       # Number of cycles decode is running
system.cpu0.decode.UnblockCycles               762108                       # Number of cycles decode is unblocking
system.cpu0.decode.SquashCycles                  8029                       # Number of cycles decode is squashing
system.cpu0.decode.DecodedInsts              11141723                       # Number of instructions handled by decode
system.cpu0.rename.SquashCycles                  8029                       # Number of cycles rename is squashing
system.cpu0.rename.IdleCycles                  673709                       # Number of cycles rename is idle
system.cpu0.rename.BlockCycles                 276592                       # Number of cycles rename is blocking
system.cpu0.rename.serializeStallCycles         14159                       # count of cycles rename stalled for serializing inst
system.cpu0.rename.RunCycles                  1127353                       # Number of cycles rename is running
system.cpu0.rename.UnblockCycles             28402047                       # Number of cycles rename is unblocking
system.cpu0.rename.RenamedInsts              11103549                       # Number of instructions processed by rename
system.cpu0.rename.ROBFullEvents                 1292                       # Number of times rename has blocked due to ROB full
system.cpu0.rename.IQFullEvents                 17849                       # Number of times rename has blocked due to IQ full
system.cpu0.rename.LQFullEvents                  4853                       # Number of times rename has blocked due to LQ full
system.cpu0.rename.SQFullEvents              28108314                       # Number of times rename has blocked due to SQ full
system.cpu0.rename.RenamedOperands           14144395                       # Number of destination operands rename has renamed
system.cpu0.rename.RenameLookups             23495568                       # Number of register rename lookups that rename has made
system.cpu0.rename.int_rename_lookups        12780682                       # Number of integer rename lookups
system.cpu0.rename.fp_rename_lookups           313040                       # Number of floating rename lookups
system.cpu0.rename.CommittedMaps             13842968                       # Number of HB maps that are committed
system.cpu0.rename.UndoneMaps                  301427                       # Number of HB maps that are undone due to squashing
system.cpu0.rename.serializingInsts               141                       # count of serializing insts renamed
system.cpu0.rename.tempSerializingInsts           151                       # count of temporary serializing insts renamed
system.cpu0.rename.skidInsts                  4808622                       # count of insts added to the skid buffer
system.cpu0.memDep0.insertedLoads              363672                       # Number of loads inserted to the mem dependence unit.
system.cpu0.memDep0.insertedStores            1258736                       # Number of stores inserted to the mem dependence unit.
system.cpu0.memDep0.conflictingLoads            20562                       # Number of conflicting loads.
system.cpu0.memDep0.conflictingStores           19910                       # Number of conflicting stores.
system.cpu0.iq.iqInstsAdded                  11033711                       # Number of instructions added to the IQ (excludes non-spec)
system.cpu0.iq.iqNonSpecInstsAdded                850                       # Number of non-speculative instructions added to the IQ
system.cpu0.iq.iqInstsIssued                 10963632                       # Number of instructions issued
system.cpu0.iq.iqSquashedInstsIssued             2304                       # Number of squashed instructions issued
system.cpu0.iq.iqSquashedInstsExamined         195685                       # Number of squashed instructions iterated over during squash; mainly for profiling
system.cpu0.iq.iqSquashedOperandsExamined       285222                       # Number of squashed operands that are examined and possibly removed from graph
system.cpu0.iq.iqSquashedNonSpecRemoved           723                       # Number of squashed non-spec instructions that were removed
system.cpu0.iq.issued_per_cycle::samples     30501889                       # Number of insts issued each cycle
system.cpu0.iq.issued_per_cycle::mean        0.359441                       # Number of insts issued each cycle
system.cpu0.iq.issued_per_cycle::stdev       1.229920                       # Number of insts issued each cycle
system.cpu0.iq.issued_per_cycle::underflows            0      0.00%      0.00% # Number of insts issued each cycle
system.cpu0.iq.issued_per_cycle::0           27516169     90.21%     90.21% # Number of insts issued each cycle
system.cpu0.iq.issued_per_cycle::1             473776      1.55%     91.76% # Number of insts issued each cycle
system.cpu0.iq.issued_per_cycle::2             532245      1.74%     93.51% # Number of insts issued each cycle
system.cpu0.iq.issued_per_cycle::3             349142      1.14%     94.65% # Number of insts issued each cycle
system.cpu0.iq.issued_per_cycle::4             304978      1.00%     95.65% # Number of insts issued each cycle
system.cpu0.iq.issued_per_cycle::5            1013147      3.32%     98.98% # Number of insts issued each cycle
system.cpu0.iq.issued_per_cycle::6             119770      0.39%     99.37% # Number of insts issued each cycle
system.cpu0.iq.issued_per_cycle::7             167623      0.55%     99.92% # Number of insts issued each cycle
system.cpu0.iq.issued_per_cycle::8              25039      0.08%    100.00% # Number of insts issued each cycle
system.cpu0.iq.issued_per_cycle::overflows            0      0.00%    100.00% # Number of insts issued each cycle
system.cpu0.iq.issued_per_cycle::min_value            0                       # Number of insts issued each cycle
system.cpu0.iq.issued_per_cycle::max_value            8                       # Number of insts issued each cycle
system.cpu0.iq.issued_per_cycle::total       30501889                       # Number of insts issued each cycle
system.cpu0.iq.fu_full::No_OpClass                  0      0.00%      0.00% # attempts to use FU when none available
system.cpu0.iq.fu_full::IntAlu                  73266     94.18%     94.18% # attempts to use FU when none available
system.cpu0.iq.fu_full::IntMult                     0      0.00%     94.18% # attempts to use FU when none available
system.cpu0.iq.fu_full::IntDiv                      0      0.00%     94.18% # attempts to use FU when none available
system.cpu0.iq.fu_full::FloatAdd                  376      0.48%     94.66% # attempts to use FU when none available
system.cpu0.iq.fu_full::FloatCmp                    0      0.00%     94.66% # attempts to use FU when none available
system.cpu0.iq.fu_full::FloatCvt                    0      0.00%     94.66% # attempts to use FU when none available
system.cpu0.iq.fu_full::FloatMult                   0      0.00%     94.66% # attempts to use FU when none available
system.cpu0.iq.fu_full::FloatMultAcc                0      0.00%     94.66% # attempts to use FU when none available
system.cpu0.iq.fu_full::FloatDiv                    0      0.00%     94.66% # attempts to use FU when none available
system.cpu0.iq.fu_full::FloatMisc                   0      0.00%     94.66% # attempts to use FU when none available
system.cpu0.iq.fu_full::FloatSqrt                   0      0.00%     94.66% # attempts to use FU when none available
system.cpu0.iq.fu_full::SimdAdd                     0      0.00%     94.66% # attempts to use FU when none available
system.cpu0.iq.fu_full::SimdAddAcc                  0      0.00%     94.66% # attempts to use FU when none available
system.cpu0.iq.fu_full::SimdAlu                     0      0.00%     94.66% # attempts to use FU when none available
system.cpu0.iq.fu_full::SimdCmp                     0      0.00%     94.66% # attempts to use FU when none available
system.cpu0.iq.fu_full::SimdCvt                     0      0.00%     94.66% # attempts to use FU when none available
system.cpu0.iq.fu_full::SimdMisc                    0      0.00%     94.66% # attempts to use FU when none available
system.cpu0.iq.fu_full::SimdMult                    0      0.00%     94.66% # attempts to use FU when none available
system.cpu0.iq.fu_full::SimdMultAcc                 0      0.00%     94.66% # attempts to use FU when none available
system.cpu0.iq.fu_full::SimdShift                   0      0.00%     94.66% # attempts to use FU when none available
system.cpu0.iq.fu_full::SimdShiftAcc                0      0.00%     94.66% # attempts to use FU when none available
system.cpu0.iq.fu_full::SimdSqrt                    0      0.00%     94.66% # attempts to use FU when none available
system.cpu0.iq.fu_full::SimdFloatAdd                0      0.00%     94.66% # attempts to use FU when none available
system.cpu0.iq.fu_full::SimdFloatAlu                0      0.00%     94.66% # attempts to use FU when none available
system.cpu0.iq.fu_full::SimdFloatCmp                0      0.00%     94.66% # attempts to use FU when none available
system.cpu0.iq.fu_full::SimdFloatCvt                0      0.00%     94.66% # attempts to use FU when none available
system.cpu0.iq.fu_full::SimdFloatDiv                0      0.00%     94.66% # attempts to use FU when none available
system.cpu0.iq.fu_full::SimdFloatMisc               0      0.00%     94.66% # attempts to use FU when none available
system.cpu0.iq.fu_full::SimdFloatMult               0      0.00%     94.66% # attempts to use FU when none available
system.cpu0.iq.fu_full::SimdFloatMultAcc            0      0.00%     94.66% # attempts to use FU when none available
system.cpu0.iq.fu_full::SimdFloatSqrt               0      0.00%     94.66% # attempts to use FU when none available
system.cpu0.iq.fu_full::MemRead                   898      1.15%     95.81% # attempts to use FU when none available
system.cpu0.iq.fu_full::MemWrite                  215      0.28%     96.09% # attempts to use FU when none available
system.cpu0.iq.fu_full::FloatMemRead             2789      3.58%     99.67% # attempts to use FU when none available
system.cpu0.iq.fu_full::FloatMemWrite             253      0.33%    100.00% # attempts to use FU when none available
system.cpu0.iq.fu_full::IprAccess                   0      0.00%    100.00% # attempts to use FU when none available
system.cpu0.iq.fu_full::InstPrefetch                0      0.00%    100.00% # attempts to use FU when none available
system.cpu0.iq.FU_type_0::No_OpClass             4862      0.04%      0.04% # Type of FU issued
system.cpu0.iq.FU_type_0::IntAlu              9267734     84.53%     84.58% # Type of FU issued
system.cpu0.iq.FU_type_0::IntMult                 120      0.00%     84.58% # Type of FU issued
system.cpu0.iq.FU_type_0::IntDiv                  358      0.00%     84.58% # Type of FU issued
system.cpu0.iq.FU_type_0::FloatAdd              84171      0.77%     85.35% # Type of FU issued
system.cpu0.iq.FU_type_0::FloatCmp                  0      0.00%     85.35% # Type of FU issued
system.cpu0.iq.FU_type_0::FloatCvt                  0      0.00%     85.35% # Type of FU issued
system.cpu0.iq.FU_type_0::FloatMult                 0      0.00%     85.35% # Type of FU issued
system.cpu0.iq.FU_type_0::FloatMultAcc              0      0.00%     85.35% # Type of FU issued
system.cpu0.iq.FU_type_0::FloatDiv                  0      0.00%     85.35% # Type of FU issued
system.cpu0.iq.FU_type_0::FloatMisc                 0      0.00%     85.35% # Type of FU issued
system.cpu0.iq.FU_type_0::FloatSqrt                 0      0.00%     85.35% # Type of FU issued
system.cpu0.iq.FU_type_0::SimdAdd                   0      0.00%     85.35% # Type of FU issued
system.cpu0.iq.FU_type_0::SimdAddAcc                0      0.00%     85.35% # Type of FU issued
system.cpu0.iq.FU_type_0::SimdAlu                   0      0.00%     85.35% # Type of FU issued
system.cpu0.iq.FU_type_0::SimdCmp                   0      0.00%     85.35% # Type of FU issued
system.cpu0.iq.FU_type_0::SimdCvt                   0      0.00%     85.35% # Type of FU issued
system.cpu0.iq.FU_type_0::SimdMisc                  0      0.00%     85.35% # Type of FU issued
system.cpu0.iq.FU_type_0::SimdMult                  0      0.00%     85.35% # Type of FU issued
system.cpu0.iq.FU_type_0::SimdMultAcc               0      0.00%     85.35% # Type of FU issued
system.cpu0.iq.FU_type_0::SimdShift                 0      0.00%     85.35% # Type of FU issued
system.cpu0.iq.FU_type_0::SimdShiftAcc              0      0.00%     85.35% # Type of FU issued
system.cpu0.iq.FU_type_0::SimdSqrt                  0      0.00%     85.35% # Type of FU issued
system.cpu0.iq.FU_type_0::SimdFloatAdd              0      0.00%     85.35% # Type of FU issued
system.cpu0.iq.FU_type_0::SimdFloatAlu              0      0.00%     85.35% # Type of FU issued
system.cpu0.iq.FU_type_0::SimdFloatCmp              0      0.00%     85.35% # Type of FU issued
system.cpu0.iq.FU_type_0::SimdFloatCvt              0      0.00%     85.35% # Type of FU issued
system.cpu0.iq.FU_type_0::SimdFloatDiv              0      0.00%     85.35% # Type of FU issued
system.cpu0.iq.FU_type_0::SimdFloatMisc             0      0.00%     85.35% # Type of FU issued
system.cpu0.iq.FU_type_0::SimdFloatMult             0      0.00%     85.35% # Type of FU issued
system.cpu0.iq.FU_type_0::SimdFloatMultAcc            0      0.00%     85.35% # Type of FU issued
system.cpu0.iq.FU_type_0::SimdFloatSqrt             0      0.00%     85.35% # Type of FU issued
system.cpu0.iq.FU_type_0::MemRead              308443      2.81%     88.16% # Type of FU issued
system.cpu0.iq.FU_type_0::MemWrite            1209553     11.03%     99.19% # Type of FU issued
system.cpu0.iq.FU_type_0::FloatMemRead          46755      0.43%     99.62% # Type of FU issued
system.cpu0.iq.FU_type_0::FloatMemWrite         41636      0.38%    100.00% # Type of FU issued
system.cpu0.iq.FU_type_0::IprAccess                 0      0.00%    100.00% # Type of FU issued
system.cpu0.iq.FU_type_0::InstPrefetch              0      0.00%    100.00% # Type of FU issued
system.cpu0.iq.FU_type_0::total              10963632                       # Type of FU issued
system.cpu0.iq.rate                          0.359055                       # Inst issue rate
system.cpu0.iq.fu_busy_cnt                      77797                       # FU busy when requested
system.cpu0.iq.fu_busy_rate                  0.007096                       # FU busy rate (busy events/executed inst)
system.cpu0.iq.int_inst_queue_reads          52125025                       # Number of integer instruction queue reads
system.cpu0.iq.int_inst_queue_writes         11017761                       # Number of integer instruction queue writes
system.cpu0.iq.int_inst_queue_wakeup_accesses     10748587                       # Number of integer instruction queue wakeup accesses
system.cpu0.iq.fp_inst_queue_reads             384229                       # Number of floating instruction queue reads
system.cpu0.iq.fp_inst_queue_writes            212711                       # Number of floating instruction queue writes
system.cpu0.iq.fp_inst_queue_wakeup_accesses       188085                       # Number of floating instruction queue wakeup accesses
system.cpu0.iq.vec_inst_queue_reads                 0                       # Number of vector instruction queue reads
system.cpu0.iq.vec_inst_queue_writes                0                       # Number of vector instruction queue writes
system.cpu0.iq.vec_inst_queue_wakeup_accesses            0                       # Number of vector instruction queue wakeup accesses
system.cpu0.iq.int_alu_accesses              10842822                       # Number of integer alu accesses
system.cpu0.iq.fp_alu_accesses                 193745                       # Number of floating point alu accesses
system.cpu0.iq.vec_alu_accesses                     0                       # Number of vector alu accesses
system.cpu0.iew.lsq.thread0.forwLoads            2587                       # Number of loads that had data forwarded from stores
system.cpu0.iew.lsq.thread0.invAddrLoads            0                       # Number of loads ignored due to an invalid address
system.cpu0.iew.lsq.thread0.squashedLoads        26731                       # Number of loads squashed
system.cpu0.iew.lsq.thread0.ignoredResponses           69                       # Number of memory responses ignored because the instruction is squashed
system.cpu0.iew.lsq.thread0.memOrderViolation          239                       # Number of memory ordering violations
system.cpu0.iew.lsq.thread0.squashedStores        15140                       # Number of stores squashed
system.cpu0.iew.lsq.thread0.invAddrSwpfs            0                       # Number of software prefetches ignored due to an invalid address
system.cpu0.iew.lsq.thread0.blockedLoads            0                       # Number of blocked loads due to partial load-store forwarding
system.cpu0.iew.lsq.thread0.rescheduledLoads           22                       # Number of loads that were rescheduled
system.cpu0.iew.lsq.thread0.cacheBlocked          662                       # Number of times an access to memory failed due to the cache being blocked
system.cpu0.iew.iewIdleCycles                       0                       # Number of cycles IEW is idle
system.cpu0.iew.iewSquashCycles                  8029                       # Number of cycles IEW is squashing
system.cpu0.iew.iewBlockCycles                  62888                       # Number of cycles IEW is blocking
system.cpu0.iew.iewUnblockCycles               176550                       # Number of cycles IEW is unblocking
system.cpu0.iew.iewDispatchedInsts           11034561                       # Number of instructions dispatched to IQ
system.cpu0.iew.iewDispSquashedInsts              855                       # Number of squashed instructions skipped by dispatch
system.cpu0.iew.iewDispLoadInsts               363672                       # Number of dispatched load instructions
system.cpu0.iew.iewDispStoreInsts             1258736                       # Number of dispatched store instructions
system.cpu0.iew.iewDispNonSpecInsts               368                       # Number of dispatched non-speculative instructions
system.cpu0.iew.iewIQFullEvents                   432                       # Number of times the IQ has become full, causing a stall
system.cpu0.iew.iewLSQFullEvents               175944                       # Number of times the LSQ has become full, causing a stall
system.cpu0.iew.memOrderViolationEvents           239                       # Number of memory order violations
system.cpu0.iew.predictedTakenIncorrect          2096                       # Number of branches that were predicted taken incorrectly
system.cpu0.iew.predictedNotTakenIncorrect         7645                       # Number of branches that were predicted not taken incorrectly
system.cpu0.iew.branchMispredicts                9741                       # Number of branch mispredicts detected at execute
system.cpu0.iew.iewExecutedInsts             10945555                       # Number of executed instructions
system.cpu0.iew.iewExecLoadInsts               351779                       # Number of load instructions executed
system.cpu0.iew.iewExecSquashedInsts            18077                       # Number of squashed instructions skipped in execute
system.cpu0.iew.exec_swp                            0                       # number of swp insts executed
system.cpu0.iew.exec_nop                            0                       # number of nop insts executed
system.cpu0.iew.exec_refs                     1601251                       # number of memory reference insts executed
system.cpu0.iew.exec_branches                 1235860                       # Number of branches executed
system.cpu0.iew.exec_stores                   1249472                       # Number of stores executed
system.cpu0.iew.exec_rate                    0.358463                       # Inst execution rate
system.cpu0.iew.wb_sent                      10940487                       # cumulative count of insts sent to commit
system.cpu0.iew.wb_count                     10936672                       # cumulative count of insts written-back
system.cpu0.iew.wb_producers                  7974641                       # num instructions producing a value
system.cpu0.iew.wb_consumers                 11162326                       # num instructions consuming a value
system.cpu0.iew.wb_rate                      0.358172                       # insts written-back per cycle
system.cpu0.iew.wb_fanout                    0.714425                       # average fanout of values written-back
system.cpu0.commit.commitSquashedInsts         196005                       # The number of squashed insts skipped by commit
system.cpu0.commit.commitNonSpecStalls            127                       # The number of times commit has been forced to stall to communicate backwards
system.cpu0.commit.branchMispredicts             7855                       # The number of times a branch was mispredicted
system.cpu0.commit.committed_per_cycle::samples     30470252                       # Number of insts commited each cycle
system.cpu0.commit.committed_per_cycle::mean     0.355720                       # Number of insts commited each cycle
system.cpu0.commit.committed_per_cycle::stdev     1.253977                       # Number of insts commited each cycle
system.cpu0.commit.committed_per_cycle::underflows            0      0.00%      0.00% # Number of insts commited each cycle
system.cpu0.commit.committed_per_cycle::0     27580968     90.52%     90.52% # Number of insts commited each cycle
system.cpu0.commit.committed_per_cycle::1       341735      1.12%     91.64% # Number of insts commited each cycle
system.cpu0.commit.committed_per_cycle::2       324520      1.07%     92.70% # Number of insts commited each cycle
system.cpu0.commit.committed_per_cycle::3      1095133      3.59%     96.30% # Number of insts commited each cycle
system.cpu0.commit.committed_per_cycle::4        65879      0.22%     96.51% # Number of insts commited each cycle
system.cpu0.commit.committed_per_cycle::5       676391      2.22%     98.73% # Number of insts commited each cycle
system.cpu0.commit.committed_per_cycle::6        72756      0.24%     98.97% # Number of insts commited each cycle
system.cpu0.commit.committed_per_cycle::7        22265      0.07%     99.05% # Number of insts commited each cycle
system.cpu0.commit.committed_per_cycle::8       290605      0.95%    100.00% # Number of insts commited each cycle
system.cpu0.commit.committed_per_cycle::overflows            0      0.00%    100.00% # Number of insts commited each cycle
system.cpu0.commit.committed_per_cycle::min_value            0                       # Number of insts commited each cycle
system.cpu0.commit.committed_per_cycle::max_value            8                       # Number of insts commited each cycle
system.cpu0.commit.committed_per_cycle::total     30470252                       # Number of insts commited each cycle
system.cpu0.commit.committedInsts             5354634                       # Number of instructions committed
system.cpu0.commit.committedOps              10838876                       # Number of ops (including micro ops) committed
system.cpu0.commit.swp_count                        0                       # Number of s/w prefetches committed
system.cpu0.commit.refs                       1580537                       # Number of memory references committed
system.cpu0.commit.loads                       336941                       # Number of loads committed
system.cpu0.commit.membars                         40                       # Number of memory barriers committed
system.cpu0.commit.branches                   1228135                       # Number of branches committed
system.cpu0.commit.vec_insts                        0                       # Number of committed Vector instructions.
system.cpu0.commit.fp_insts                    184351                       # Number of committed floating point instructions.
system.cpu0.commit.int_insts                 10741134                       # Number of committed integer instructions.
system.cpu0.commit.function_calls                1377                       # Number of function calls committed.
system.cpu0.commit.op_class_0::No_OpClass         2368      0.02%      0.02% # Class of committed instruction
system.cpu0.commit.op_class_0::IntAlu         9173573     84.64%     84.66% # Class of committed instruction
system.cpu0.commit.op_class_0::IntMult             89      0.00%     84.66% # Class of committed instruction
system.cpu0.commit.op_class_0::IntDiv             274      0.00%     84.66% # Class of committed instruction
system.cpu0.commit.op_class_0::FloatAdd         82035      0.76%     85.42% # Class of committed instruction
system.cpu0.commit.op_class_0::FloatCmp             0      0.00%     85.42% # Class of committed instruction
system.cpu0.commit.op_class_0::FloatCvt             0      0.00%     85.42% # Class of committed instruction
system.cpu0.commit.op_class_0::FloatMult            0      0.00%     85.42% # Class of committed instruction
system.cpu0.commit.op_class_0::FloatMultAcc            0      0.00%     85.42% # Class of committed instruction
system.cpu0.commit.op_class_0::FloatDiv             0      0.00%     85.42% # Class of committed instruction
system.cpu0.commit.op_class_0::FloatMisc            0      0.00%     85.42% # Class of committed instruction
system.cpu0.commit.op_class_0::FloatSqrt            0      0.00%     85.42% # Class of committed instruction
system.cpu0.commit.op_class_0::SimdAdd              0      0.00%     85.42% # Class of committed instruction
system.cpu0.commit.op_class_0::SimdAddAcc            0      0.00%     85.42% # Class of committed instruction
system.cpu0.commit.op_class_0::SimdAlu              0      0.00%     85.42% # Class of committed instruction
system.cpu0.commit.op_class_0::SimdCmp              0      0.00%     85.42% # Class of committed instruction
system.cpu0.commit.op_class_0::SimdCvt              0      0.00%     85.42% # Class of committed instruction
system.cpu0.commit.op_class_0::SimdMisc             0      0.00%     85.42% # Class of committed instruction
system.cpu0.commit.op_class_0::SimdMult             0      0.00%     85.42% # Class of committed instruction
system.cpu0.commit.op_class_0::SimdMultAcc            0      0.00%     85.42% # Class of committed instruction
system.cpu0.commit.op_class_0::SimdShift            0      0.00%     85.42% # Class of committed instruction
system.cpu0.commit.op_class_0::SimdShiftAcc            0      0.00%     85.42% # Class of committed instruction
system.cpu0.commit.op_class_0::SimdSqrt             0      0.00%     85.42% # Class of committed instruction
system.cpu0.commit.op_class_0::SimdFloatAdd            0      0.00%     85.42% # Class of committed instruction
system.cpu0.commit.op_class_0::SimdFloatAlu            0      0.00%     85.42% # Class of committed instruction
system.cpu0.commit.op_class_0::SimdFloatCmp            0      0.00%     85.42% # Class of committed instruction
system.cpu0.commit.op_class_0::SimdFloatCvt            0      0.00%     85.42% # Class of committed instruction
system.cpu0.commit.op_class_0::SimdFloatDiv            0      0.00%     85.42% # Class of committed instruction
system.cpu0.commit.op_class_0::SimdFloatMisc            0      0.00%     85.42% # Class of committed instruction
system.cpu0.commit.op_class_0::SimdFloatMult            0      0.00%     85.42% # Class of committed instruction
system.cpu0.commit.op_class_0::SimdFloatMultAcc            0      0.00%     85.42% # Class of committed instruction
system.cpu0.commit.op_class_0::SimdFloatSqrt            0      0.00%     85.42% # Class of committed instruction
system.cpu0.commit.op_class_0::MemRead         292620      2.70%     88.12% # Class of committed instruction
system.cpu0.commit.op_class_0::MemWrite       1202594     11.10%     99.21% # Class of committed instruction
system.cpu0.commit.op_class_0::FloatMemRead        44321      0.41%     99.62% # Class of committed instruction
system.cpu0.commit.op_class_0::FloatMemWrite        41002      0.38%    100.00% # Class of committed instruction
system.cpu0.commit.op_class_0::IprAccess            0      0.00%    100.00% # Class of committed instruction
system.cpu0.commit.op_class_0::InstPrefetch            0      0.00%    100.00% # Class of committed instruction
system.cpu0.commit.op_class_0::total         10838876                       # Class of committed instruction
system.cpu0.commit.bw_lim_events               290605                       # number cycles where commit BW limit reached
system.cpu0.rob.rob_reads                    41214528                       # The number of ROB reads
system.cpu0.rob.rob_writes                   22101989                       # The number of ROB writes
system.cpu0.timesIdled                            320                       # Number of times that the entire CPU went into an idle state and unscheduled itself
system.cpu0.idleCycles                          32800                       # Total number of cycles that the CPU has spent unscheduled due to idling
system.cpu0.committedInsts                    5354634                       # Number of Instructions Simulated
system.cpu0.committedOps                     10838876                       # Number of Ops (including micro ops) Simulated
system.cpu0.cpi                              5.702479                       # CPI: Cycles Per Instruction
system.cpu0.cpi_total                        5.702479                       # CPI: Total CPI of All Threads
system.cpu0.ipc                              0.175362                       # IPC: Instructions Per Cycle
system.cpu0.ipc_total                        0.175362                       # IPC: Total IPC of All Threads
system.cpu0.int_regfile_reads                12524733                       # number of integer regfile reads
system.cpu0.int_regfile_writes                8304449                       # number of integer regfile writes
system.cpu0.fp_regfile_reads                   290004                       # number of floating regfile reads
system.cpu0.fp_regfile_writes                  145793                       # number of floating regfile writes
system.cpu0.cc_regfile_reads                  6162978                       # number of cc regfile reads
system.cpu0.cc_regfile_writes                 5504511                       # number of cc regfile writes
system.cpu0.misc_regfile_reads                4080961                       # number of misc regfile reads
system.cpu0.dcache.tags.pwrStateResidencyTicks::UNDEFINED  15267344125                       # Cumulative time (in ticks) in various power states
system.cpu0.dcache.tags.replacements           156854                       # number of replacements
system.cpu0.dcache.tags.tagsinuse                1024                       # Cycle average of tags in use
system.cpu0.dcache.tags.total_refs            1421263                       # Total number of references to valid blocks.
system.cpu0.dcache.tags.sampled_refs           156854                       # Sample count of references to valid blocks.
system.cpu0.dcache.tags.avg_refs             9.061057                       # Average number of references to valid blocks.
system.cpu0.dcache.tags.warmup_cycle                0                       # Cycle when the warmup percentage was hit.
system.cpu0.dcache.tags.occ_blocks::cpu0.data         1024                       # Average occupied blocks per requestor
system.cpu0.dcache.tags.occ_percent::cpu0.data            1                       # Average percentage of cache occupancy
system.cpu0.dcache.tags.occ_percent::total            1                       # Average percentage of cache occupancy
system.cpu0.dcache.tags.occ_task_id_blocks::1024         1024                       # Occupied blocks per task id
system.cpu0.dcache.tags.age_task_id_blocks_1024::0           89                       # Occupied blocks per task id
system.cpu0.dcache.tags.age_task_id_blocks_1024::1          854                       # Occupied blocks per task id
system.cpu0.dcache.tags.age_task_id_blocks_1024::2           81                       # Occupied blocks per task id
system.cpu0.dcache.tags.occ_task_id_percent::1024            1                       # Percentage of cache occupancy per task id
system.cpu0.dcache.tags.tag_accesses          6523274                       # Number of tag accesses
system.cpu0.dcache.tags.data_accesses         6523274                       # Number of data accesses
system.cpu0.dcache.pwrStateResidencyTicks::UNDEFINED  15267344125                       # Cumulative time (in ticks) in various power states
system.cpu0.dcache.ReadReq_hits::cpu0.data       343882                       # number of ReadReq hits
system.cpu0.dcache.ReadReq_hits::total         343882                       # number of ReadReq hits
system.cpu0.dcache.WriteReq_hits::cpu0.data      1088299                       # number of WriteReq hits
system.cpu0.dcache.WriteReq_hits::total       1088299                       # number of WriteReq hits
system.cpu0.dcache.demand_hits::cpu0.data      1432181                       # number of demand (read+write) hits
system.cpu0.dcache.demand_hits::total         1432181                       # number of demand (read+write) hits
system.cpu0.dcache.overall_hits::cpu0.data      1432181                       # number of overall hits
system.cpu0.dcache.overall_hits::total        1432181                       # number of overall hits
system.cpu0.dcache.ReadReq_misses::cpu0.data         4095                       # number of ReadReq misses
system.cpu0.dcache.ReadReq_misses::total         4095                       # number of ReadReq misses
system.cpu0.dcache.WriteReq_misses::cpu0.data       155329                       # number of WriteReq misses
system.cpu0.dcache.WriteReq_misses::total       155329                       # number of WriteReq misses
system.cpu0.dcache.demand_misses::cpu0.data       159424                       # number of demand (read+write) misses
system.cpu0.dcache.demand_misses::total        159424                       # number of demand (read+write) misses
system.cpu0.dcache.overall_misses::cpu0.data       159424                       # number of overall misses
system.cpu0.dcache.overall_misses::total       159424                       # number of overall misses
system.cpu0.dcache.ReadReq_miss_latency::cpu0.data    392540000                       # number of ReadReq miss cycles
system.cpu0.dcache.ReadReq_miss_latency::total    392540000                       # number of ReadReq miss cycles
system.cpu0.dcache.WriteReq_miss_latency::cpu0.data  14005990497                       # number of WriteReq miss cycles
system.cpu0.dcache.WriteReq_miss_latency::total  14005990497                       # number of WriteReq miss cycles
system.cpu0.dcache.demand_miss_latency::cpu0.data  14398530497                       # number of demand (read+write) miss cycles
system.cpu0.dcache.demand_miss_latency::total  14398530497                       # number of demand (read+write) miss cycles
system.cpu0.dcache.overall_miss_latency::cpu0.data  14398530497                       # number of overall miss cycles
system.cpu0.dcache.overall_miss_latency::total  14398530497                       # number of overall miss cycles
system.cpu0.dcache.ReadReq_accesses::cpu0.data       347977                       # number of ReadReq accesses(hits+misses)
system.cpu0.dcache.ReadReq_accesses::total       347977                       # number of ReadReq accesses(hits+misses)
system.cpu0.dcache.WriteReq_accesses::cpu0.data      1243628                       # number of WriteReq accesses(hits+misses)
[...]
system.l2.demand_accesses::cpu0.data           156854                       # number of demand (read+write) accesses
system.l2.demand_accesses::total               157577                       # number of demand (read+write) accesses
system.l2.overall_accesses::cpu0.inst             723                       # number of overall (read+write) accesses
system.l2.overall_accesses::cpu0.data          156854                       # number of overall (read+write) accesses
system.l2.overall_accesses::total              157577                       # number of overall (read+write) accesses
system.l2.ReadExReq_miss_rate::cpu0.data     0.999878                       # miss rate for ReadExReq accesses
system.l2.ReadExReq_miss_rate::total         0.999878                       # miss rate for ReadExReq accesses
system.l2.ReadCleanReq_miss_rate::cpu0.inst     0.521438                       # miss rate for ReadCleanReq accesses
system.l2.ReadCleanReq_miss_rate::total      0.521438                       # miss rate for ReadCleanReq accesses
system.l2.ReadSharedReq_miss_rate::cpu0.data     0.979261                       # miss rate for ReadSharedReq accesses
system.l2.ReadSharedReq_miss_rate::total     0.979261                       # miss rate for ReadSharedReq accesses
system.l2.demand_miss_rate::cpu0.inst        0.521438                       # miss rate for demand accesses
system.l2.demand_miss_rate::cpu0.data        0.999675                       # miss rate for demand accesses
system.l2.demand_miss_rate::total            0.997481                       # miss rate for demand accesses
system.l2.overall_miss_rate::cpu0.inst       0.521438                       # miss rate for overall accesses
system.l2.overall_miss_rate::cpu0.data       0.999675                       # miss rate for overall accesses
system.l2.overall_miss_rate::total           0.997481                       # miss rate for overall accesses
system.l2.ReadExReq_avg_miss_latency::cpu0.data 87682.916699                       # average ReadExReq miss latency
system.l2.ReadExReq_avg_miss_latency::total 87682.916699                       # average ReadExReq miss latency
system.l2.ReadCleanReq_avg_miss_latency::cpu0.inst 109901.856764                       # average ReadCleanReq miss latency
system.l2.ReadCleanReq_avg_miss_latency::total 109901.856764                       # average ReadCleanReq miss latency
system.l2.ReadSharedReq_avg_miss_latency::cpu0.data 107543.017869                       # average ReadSharedReq miss latency
system.l2.ReadSharedReq_avg_miss_latency::total 107543.017869                       # average ReadSharedReq miss latency
system.l2.demand_avg_miss_latency::cpu0.inst 109901.856764                       # average overall miss latency
system.l2.demand_avg_miss_latency::cpu0.data 87874.294497                       # average overall miss latency
system.l2.demand_avg_miss_latency::total 87927.128133                       # average overall miss latency
system.l2.overall_avg_miss_latency::cpu0.inst 109901.856764                       # average overall miss latency
system.l2.overall_avg_miss_latency::cpu0.data 87874.294497                       # average overall miss latency
system.l2.overall_avg_miss_latency::total 87927.128133                       # average overall miss latency
system.l2.blocked_cycles::no_mshrs                  0                       # number of cycles access was blocked
system.l2.blocked_cycles::no_targets                0                       # number of cycles access was blocked
system.l2.blocked::no_mshrs                         0                       # number of cycles access was blocked
system.l2.blocked::no_targets                       0                       # number of cycles access was blocked
system.l2.avg_blocked_cycles::no_mshrs            nan                       # average number of cycles each access was blocked
system.l2.avg_blocked_cycles::no_targets          nan                       # average number of cycles each access was blocked
system.l2.writebacks::writebacks               156066                       # number of writebacks
system.l2.writebacks::total                    156066                       # number of writebacks
system.l2.ReadExReq_mshr_misses::cpu0.data       155292                       # number of ReadExReq MSHR misses
system.l2.ReadExReq_mshr_misses::total         155292                       # number of ReadExReq MSHR misses
system.l2.ReadCleanReq_mshr_misses::cpu0.inst          377                       # number of ReadCleanReq MSHR misses
system.l2.ReadCleanReq_mshr_misses::total          377                       # number of ReadCleanReq MSHR misses
system.l2.ReadSharedReq_mshr_misses::cpu0.data         1511                       # number of ReadSharedReq MSHR misses
system.l2.ReadSharedReq_mshr_misses::total         1511                       # number of ReadSharedReq MSHR misses
system.l2.demand_mshr_misses::cpu0.inst           377                       # number of demand (read+write) MSHR misses
system.l2.demand_mshr_misses::cpu0.data        156803                       # number of demand (read+write) MSHR misses
system.l2.demand_mshr_misses::total            157180                       # number of demand (read+write) MSHR misses
system.l2.overall_mshr_misses::cpu0.inst          377                       # number of overall MSHR misses
system.l2.overall_mshr_misses::cpu0.data       156803                       # number of overall MSHR misses
system.l2.overall_mshr_misses::total           157180                       # number of overall MSHR misses
system.l2.ReadExReq_mshr_miss_latency::cpu0.data  12063525500                       # number of ReadExReq MSHR miss cycles
system.l2.ReadExReq_mshr_miss_latency::total  12063525500                       # number of ReadExReq MSHR miss cycles
system.l2.ReadCleanReq_mshr_miss_latency::cpu0.inst     37663000                       # number of ReadCleanReq MSHR miss cycles
system.l2.ReadCleanReq_mshr_miss_latency::total     37663000                       # number of ReadCleanReq MSHR miss cycles
system.l2.ReadSharedReq_mshr_miss_latency::cpu0.data    147387500                       # number of ReadSharedReq MSHR miss cycles
system.l2.ReadSharedReq_mshr_miss_latency::total    147387500                       # number of ReadSharedReq MSHR miss cycles
system.l2.demand_mshr_miss_latency::cpu0.inst     37663000                       # number of demand (read+write) MSHR miss cycles
system.l2.demand_mshr_miss_latency::cpu0.data  12210913000                       # number of demand (read+write) MSHR miss cycles
system.l2.demand_mshr_miss_latency::total  12248576000                       # number of demand (read+write) MSHR miss cycles
system.l2.overall_mshr_miss_latency::cpu0.inst     37663000                       # number of overall MSHR miss cycles
system.l2.overall_mshr_miss_latency::cpu0.data  12210913000                       # number of overall MSHR miss cycles
system.l2.overall_mshr_miss_latency::total  12248576000                       # number of overall MSHR miss cycles
system.l2.ReadExReq_mshr_miss_rate::cpu0.data     0.999878                       # mshr miss rate for ReadExReq accesses
system.l2.ReadExReq_mshr_miss_rate::total     0.999878                       # mshr miss rate for ReadExReq accesses
system.l2.ReadCleanReq_mshr_miss_rate::cpu0.inst     0.521438                       # mshr miss rate for ReadCleanReq accesses
system.l2.ReadCleanReq_mshr_miss_rate::total     0.521438                       # mshr miss rate for ReadCleanReq accesses
system.l2.ReadSharedReq_mshr_miss_rate::cpu0.data     0.979261                       # mshr miss rate for ReadSharedReq accesses
system.l2.ReadSharedReq_mshr_miss_rate::total     0.979261                       # mshr miss rate for ReadSharedReq accesses
system.l2.demand_mshr_miss_rate::cpu0.inst     0.521438                       # mshr miss rate for demand accesses
system.l2.demand_mshr_miss_rate::cpu0.data     0.999675                       # mshr miss rate for demand accesses
system.l2.demand_mshr_miss_rate::total       0.997481                       # mshr miss rate for demand accesses
system.l2.overall_mshr_miss_rate::cpu0.inst     0.521438                       # mshr miss rate for overall accesses
system.l2.overall_mshr_miss_rate::cpu0.data     0.999675                       # mshr miss rate for overall accesses
system.l2.overall_mshr_miss_rate::total      0.997481                       # mshr miss rate for overall accesses
system.l2.ReadExReq_avg_mshr_miss_latency::cpu0.data 77682.852304                       # average ReadExReq mshr miss latency
system.l2.ReadExReq_avg_mshr_miss_latency::total 77682.852304                       # average ReadExReq mshr miss latency
system.l2.ReadCleanReq_avg_mshr_miss_latency::cpu0.inst 99901.856764                       # average ReadCleanReq mshr miss latency
system.l2.ReadCleanReq_avg_mshr_miss_latency::total 99901.856764                       # average ReadCleanReq mshr miss latency
system.l2.ReadSharedReq_avg_mshr_miss_latency::cpu0.data 97543.017869                       # average ReadSharedReq mshr miss latency
system.l2.ReadSharedReq_avg_mshr_miss_latency::total 97543.017869                       # average ReadSharedReq mshr miss latency
system.l2.demand_avg_mshr_miss_latency::cpu0.inst 99901.856764                       # average overall mshr miss latency
system.l2.demand_avg_mshr_miss_latency::cpu0.data 77874.230723                       # average overall mshr miss latency
system.l2.demand_avg_mshr_miss_latency::total 77927.064512                       # average overall mshr miss latency
system.l2.overall_avg_mshr_miss_latency::cpu0.inst 99901.856764                       # average overall mshr miss latency
system.l2.overall_avg_mshr_miss_latency::cpu0.data 77874.230723                       # average overall mshr miss latency
system.l2.overall_avg_mshr_miss_latency::total 77927.064512                       # average overall mshr miss latency
system.membus.snoop_filter.tot_requests        314466                       # Total number of requests made to the snoop filter.
system.membus.snoop_filter.hit_single_requests       157306                       # Number of requests hitting in the snoop filter with a single holder of the requested data.
system.membus.snoop_filter.hit_multi_requests            0                       # Number of requests hitting in the snoop filter with multiple (>1) holders of the requested data.
system.membus.snoop_filter.tot_snoops               0                       # Total number of snoops made to the snoop filter.
system.membus.snoop_filter.hit_single_snoops            0                       # Number of snoops hitting in the snoop filter with a single holder of the requested data.
system.membus.snoop_filter.hit_multi_snoops            0                       # Number of snoops hitting in the snoop filter with multiple (>1) holders of the requested data.
system.membus.pwrStateResidencyTicks::UNDEFINED  15267344125                       # Cumulative time (in ticks) in various power states
system.membus.trans_dist::ReadResp               1888                       # Transaction distribution
system.membus.trans_dist::WritebackDirty       156065                       # Transaction distribution
system.membus.trans_dist::CleanEvict             1221                       # Transaction distribution
system.membus.trans_dist::ReadExReq            155292                       # Transaction distribution
system.membus.trans_dist::ReadExResp           155293                       # Transaction distribution
system.membus.trans_dist::ReadSharedReq          1888                       # Transaction distribution
system.membus.pkt_count_system.l2.mem_side::system.mem_ctrls.port       471647                       # Packet count per connected master and slave (bytes)
system.membus.pkt_count_system.l2.mem_side::total       471647                       # Packet count per connected master and slave (bytes)
system.membus.pkt_count::total                 471647                       # Packet count per connected master and slave (bytes)
system.membus.pkt_size_system.l2.mem_side::system.mem_ctrls.port     20047744                       # Cumulative packet size per connected master and slave (bytes)
system.membus.pkt_size_system.l2.mem_side::total     20047744                       # Cumulative packet size per connected master and slave (bytes)
system.membus.pkt_size::total                20047744                       # Cumulative packet size per connected master and slave (bytes)
system.membus.snoops                                0                       # Total snoops (count)
system.membus.snoopTraffic                          0                       # Total snoop traffic (bytes)
system.membus.snoop_fanout::samples            157180                       # Request fanout histogram
system.membus.snoop_fanout::mean                    0                       # Request fanout histogram
system.membus.snoop_fanout::stdev                   0                       # Request fanout histogram
system.membus.snoop_fanout::underflows              0      0.00%      0.00% # Request fanout histogram
system.membus.snoop_fanout::0                  157180    100.00%    100.00% # Request fanout histogram
system.membus.snoop_fanout::1                       0      0.00%    100.00% # Request fanout histogram
system.membus.snoop_fanout::overflows               0      0.00%    100.00% # Request fanout histogram
system.membus.snoop_fanout::min_value               0                       # Request fanout histogram
system.membus.snoop_fanout::max_value               0                       # Request fanout histogram
system.membus.snoop_fanout::total              157180                       # Request fanout histogram
system.membus.reqLayer4.occupancy           939337000                       # Layer occupancy (ticks)
system.membus.reqLayer4.utilization               6.2                       # Layer utilization (%)
system.membus.respLayer1.occupancy          826597750                       # Layer occupancy (ticks)
system.membus.respLayer1.utilization              5.4                       # Layer utilization (%)
system.tol2bus.snoop_filter.tot_requests       315164                       # Total number of requests made to the snoop filter.
system.tol2bus.snoop_filter.hit_single_requests       157577                       # Number of requests hitting in the snoop filter with a single holder of the requested data.
system.tol2bus.snoop_filter.hit_multi_requests          116                       # Number of requests hitting in the snoop filter with multiple (>1) holders of the requested data.
system.tol2bus.snoop_filter.tot_snoops            597                       # Total number of snoops made to the snoop filter.
system.tol2bus.snoop_filter.hit_single_snoops          597                       # Number of snoops hitting in the snoop filter with a single holder of the requested data.
system.tol2bus.snoop_filter.hit_multi_snoops            0                       # Number of snoops hitting in the snoop filter with multiple (>1) holders of the requested data.
system.tol2bus.pwrStateResidencyTicks::UNDEFINED  15267344125                       # Cumulative time (in ticks) in various power states
system.tol2bus.trans_dist::ReadResp              2271                       # Transaction distribution
system.tol2bus.trans_dist::WritebackDirty       311838                       # Transaction distribution
system.tol2bus.trans_dist::WritebackClean          723                       # Transaction distribution
system.tol2bus.trans_dist::CleanEvict            2830                       # Transaction distribution
system.tol2bus.trans_dist::UpgradeReq               5                       # Transaction distribution
system.tol2bus.trans_dist::UpgradeResp              5                       # Transaction distribution
system.tol2bus.trans_dist::ReadExReq           155311                       # Transaction distribution
system.tol2bus.trans_dist::ReadExResp          155311                       # Transaction distribution
system.tol2bus.trans_dist::ReadCleanReq           728                       # Transaction distribution
system.tol2bus.trans_dist::ReadSharedReq         1543                       # Transaction distribution
system.tol2bus.pkt_count_system.cpu0.icache.mem_side::system.l2.cpu_side         2174                       # Packet count per connected master and slave (bytes)
system.tol2bus.pkt_count_system.cpu0.dcache.mem_side::system.l2.cpu_side       470572                       # Packet count per connected master and slave (bytes)
system.tol2bus.pkt_count::total                472746                       # Packet count per connected master and slave (bytes)
system.tol2bus.pkt_size_system.cpu0.icache.mem_side::system.l2.cpu_side        92544                       # Cumulative packet size per connected master and slave (bytes)
system.tol2bus.pkt_size_system.cpu0.dcache.mem_side::system.l2.cpu_side     20008064                       # Cumulative packet size per connected master and slave (bytes)
system.tol2bus.pkt_size::total               20100608                       # Cumulative packet size per connected master and slave (bytes)
system.tol2bus.snoops                          157819                       # Total snoops (count)
system.tol2bus.snoopTraffic                   9988544                       # Total snoop traffic (bytes)
system.tol2bus.snoop_fanout::samples           315401                       # Request fanout histogram
system.tol2bus.snoop_fanout::mean            0.002261                       # Request fanout histogram
system.tol2bus.snoop_fanout::stdev           0.047492                       # Request fanout histogram
system.tol2bus.snoop_fanout::underflows             0      0.00%      0.00% # Request fanout histogram
system.tol2bus.snoop_fanout::0                 314688     99.77%     99.77% # Request fanout histogram
system.tol2bus.snoop_fanout::1                    713      0.23%    100.00% # Request fanout histogram
system.tol2bus.snoop_fanout::2                      0      0.00%    100.00% # Request fanout histogram
system.tol2bus.snoop_fanout::3                      0      0.00%    100.00% # Request fanout histogram
system.tol2bus.snoop_fanout::4                      0      0.00%    100.00% # Request fanout histogram
system.tol2bus.snoop_fanout::5                      0      0.00%    100.00% # Request fanout histogram
system.tol2bus.snoop_fanout::6                      0      0.00%    100.00% # Request fanout histogram
system.tol2bus.snoop_fanout::7                      0      0.00%    100.00% # Request fanout histogram
system.tol2bus.snoop_fanout::8                      0      0.00%    100.00% # Request fanout histogram
system.tol2bus.snoop_fanout::overflows              0      0.00%    100.00% # Request fanout histogram
system.tol2bus.snoop_fanout::min_value              0                       # Request fanout histogram
system.tol2bus.snoop_fanout::max_value              1                       # Request fanout histogram
system.tol2bus.snoop_fanout::total             315401                       # Request fanout histogram
system.tol2bus.reqLayer0.occupancy          314077000                       # Layer occupancy (ticks)
system.tol2bus.reqLayer0.utilization              2.1                       # Layer utilization (%)
system.tol2bus.respLayer0.occupancy           1092000                       # Layer occupancy (ticks)
system.tol2bus.respLayer0.utilization             0.0                       # Layer utilization (%)
system.tol2bus.respLayer1.occupancy         235284997                       # Layer occupancy (ticks)
system.tol2bus.respLayer1.utilization             1.5                       # Layer utilization (%)

---------- End Simulation Statistics   ----------
