
---------- Begin Simulation Statistics ----------
sim_seconds                                  0.015267                       # Number of seconds simulated
sim_ticks                                 15267344125                       # Number of ticks simulated
final_tick                               7710008783125                       # Number of ticks from beginning of simulation (restored from checkpoints and never reset)
sim_freq                                 1000000000000                       # Frequency of simulated ticks
host_inst_rate                               86812651                       # Simulator instruction rate (inst/s)
host_op_rate                                161551423                       # Simulator op (including micro ops) rate (op/s)
host_tick_rate                              224521046                       # Simulator tick rate (ticks/s)
host_mem_usage                                1248976                       # Number of bytes of host memory used
host_seconds                                    68.00                       # Real time elapsed on the host
sim_insts                                  5903225149                       # Number of instructions simulated
sim_ops                                   10985432857                       # Number of ops (including micro ops) simulated
system.voltage_domain.voltage                       1                       # Voltage in Volts
system.clk_domain.clock                          1000                       # Clock period in ticks
system.mem_ctrls.pwrStateResidencyTicks::UNDEFINED  15267344125                       # Cumulative time (in ticks) in various power states
system.mem_ctrls.bytes_read::cpu0.inst            128                       # Number of bytes read from this memory
system.mem_ctrls.bytes_read::cpu0.data       12618304                       # Number of bytes read from this memory
system.mem_ctrls.bytes_read::total           12618432                       # Number of bytes read from this memory
system.mem_ctrls.bytes_inst_read::cpu0.inst          128                       # Number of instructions bytes read from this memory
system.mem_ctrls.bytes_inst_read::total           128                       # Number of instructions bytes read from this memory
system.mem_ctrls.bytes_written::writebacks        21888                       # Number of bytes written to this memory
system.mem_ctrls.bytes_written::total           21888                       # Number of bytes written to this memory
system.mem_ctrls.num_reads::cpu0.inst               2                       # Number of read requests responded to by this memory
system.mem_ctrls.num_reads::cpu0.data          197161                       # Number of read requests responded to by this memory
system.mem_ctrls.num_reads::total              197163                       # Number of read requests responded to by this memory
system.mem_ctrls.num_writes::writebacks           342                       # Number of write requests responded to by this memory
system.mem_ctrls.num_writes::total                342                       # Number of write requests responded to by this memory
system.mem_ctrls.bw_read::cpu0.inst              8384                       # Total read bandwidth from this memory (bytes/s)
system.mem_ctrls.bw_read::cpu0.data         826489787                       # Total read bandwidth from this memory (bytes/s)
system.mem_ctrls.bw_read::total             826498171                       # Total read bandwidth from this memory (bytes/s)
system.mem_ctrls.bw_inst_read::cpu0.inst         8384                       # Instruction read bandwidth from this memory (bytes/s)
system.mem_ctrls.bw_inst_read::total             8384                       # Instruction read bandwidth from this memory (bytes/s)
system.mem_ctrls.bw_write::writebacks         1433648                       # Write bandwidth from this memory (bytes/s)
system.mem_ctrls.bw_write::total              1433648                       # Write bandwidth from this memory (bytes/s)
system.mem_ctrls.bw_total::writebacks         1433648                       # Total bandwidth to/from this memory (bytes/s)
system.mem_ctrls.bw_total::cpu0.inst             8384                       # Total bandwidth to/from this memory (bytes/s)
system.mem_ctrls.bw_total::cpu0.data        826489787                       # Total bandwidth to/from this memory (bytes/s)
system.mem_ctrls.bw_total::total            827931819                       # Total bandwidth to/from this memory (bytes/s)
system.mem_ctrls.readReqs                      197163                       # Number of read requests accepted
system.mem_ctrls.writeReqs                        342                       # Number of write requests accepted
system.mem_ctrls.readBursts                    197163                       # Number of DRAM read bursts, including those serviced by the write queue
system.mem_ctrls.writeBursts                      342                       # Number of DRAM write bursts, including those merged in the write queue
system.mem_ctrls.bytesReadDRAM               12614656                       # Total number of bytes read from DRAM
system.mem_ctrls.bytesReadWrQ                    3776                       # Total number of bytes read from write queue
system.mem_ctrls.bytesWritten                   21504                       # Total number of bytes written to DRAM
system.mem_ctrls.bytesReadSys                12618432                       # Total read bytes from the system interface side
system.mem_ctrls.bytesWrittenSys                21888                       # Total written bytes from the system interface side
system.mem_ctrls.servicedByWrQ                     59                       # Number of DRAM read bursts serviced by the write queue
system.mem_ctrls.mergedWrBursts                     6                       # Number of DRAM write bursts merged with an existing one
system.mem_ctrls.neitherReadNorWriteReqs            0                       # Number of requests that are neither read nor write
system.mem_ctrls.perBankRdBursts::0             12320                       # Per bank write bursts
system.mem_ctrls.perBankRdBursts::1             12398                       # Per bank write bursts
system.mem_ctrls.perBankRdBursts::2             12532                       # Per bank write bursts
system.mem_ctrls.perBankRdBursts::3             12325                       # Per bank write bursts
system.mem_ctrls.perBankRdBursts::4             12232                       # Per bank write bursts
system.mem_ctrls.perBankRdBursts::5             12325                       # Per bank write bursts
system.mem_ctrls.perBankRdBursts::6             12037                       # Per bank write bursts
system.mem_ctrls.perBankRdBursts::7             12049                       # Per bank write bursts
system.mem_ctrls.perBankRdBursts::8             12169                       # Per bank write bursts
system.mem_ctrls.perBankRdBursts::9             12222                       # Per bank write bursts
system.mem_ctrls.perBankRdBursts::10            12209                       # Per bank write bursts
system.mem_ctrls.perBankRdBursts::11            12259                       # Per bank write bursts
system.mem_ctrls.perBankRdBursts::12            12489                       # Per bank write bursts
system.mem_ctrls.perBankRdBursts::13            12613                       # Per bank write bursts
system.mem_ctrls.perBankRdBursts::14            12715                       # Per bank write bursts
system.mem_ctrls.perBankRdBursts::15            12210                       # Per bank write bursts
system.mem_ctrls.perBankWrBursts::0                 0                       # Per bank write bursts
system.mem_ctrls.perBankWrBursts::1                 0                       # Per bank write bursts
system.mem_ctrls.perBankWrBursts::2                 0                       # Per bank write bursts
system.mem_ctrls.perBankWrBursts::3                 0                       # Per bank write bursts
system.mem_ctrls.perBankWrBursts::4                15                       # Per bank write bursts
system.mem_ctrls.perBankWrBursts::5               128                       # Per bank write bursts
system.mem_ctrls.perBankWrBursts::6                51                       # Per bank write bursts
system.mem_ctrls.perBankWrBursts::7                 0                       # Per bank write bursts
system.mem_ctrls.perBankWrBursts::8                 0                       # Per bank write bursts
system.mem_ctrls.perBankWrBursts::9                 0                       # Per bank write bursts
system.mem_ctrls.perBankWrBursts::10                0                       # Per bank write bursts
system.mem_ctrls.perBankWrBursts::11                0                       # Per bank write bursts
system.mem_ctrls.perBankWrBursts::12              122                       # Per bank write bursts
system.mem_ctrls.perBankWrBursts::13                0                       # Per bank write bursts
system.mem_ctrls.perBankWrBursts::14                0                       # Per bank write bursts
system.mem_ctrls.perBankWrBursts::15               20                       # Per bank write bursts
system.mem_ctrls.numRdRetry                         0                       # Number of times read queue was full causing retry
system.mem_ctrls.numWrRetry                         0                       # Number of times write queue was full causing retry
system.mem_ctrls.totGap                   15267376000                       # Total gap between requests
system.mem_ctrls.readPktSize::0                     0                       # Read request sizes (log2)
system.mem_ctrls.readPktSize::1                     0                       # Read request sizes (log2)
system.mem_ctrls.readPktSize::2                     0                       # Read request sizes (log2)
system.mem_ctrls.readPktSize::3                     0                       # Read request sizes (log2)
system.mem_ctrls.readPktSize::4                     0                       # Read request sizes (log2)
system.mem_ctrls.readPktSize::5                     0                       # Read request sizes (log2)
system.mem_ctrls.readPktSize::6                197163                       # Read request sizes (log2)
system.mem_ctrls.writePktSize::0                    0                       # Write request sizes (log2)
system.mem_ctrls.writePktSize::1                    0                       # Write request sizes (log2)
system.mem_ctrls.writePktSize::2                    0                       # Write request sizes (log2)
system.mem_ctrls.writePktSize::3                    0                       # Write request sizes (log2)
system.mem_ctrls.writePktSize::4                    0                       # Write request sizes (log2)
system.mem_ctrls.writePktSize::5                    0                       # Write request sizes (log2)
system.mem_ctrls.writePktSize::6                  342                       # Write request sizes (log2)
system.mem_ctrls.rdQLenPdf::0                  148616                       # What read queue length does an incoming req see
system.mem_ctrls.rdQLenPdf::1                   45516                       # What read queue length does an incoming req see
system.mem_ctrls.rdQLenPdf::2                    2943                       # What read queue length does an incoming req see
system.mem_ctrls.rdQLenPdf::3                      29                       # What read queue length does an incoming req see
system.mem_ctrls.rdQLenPdf::4                       0                       # What read queue length does an incoming req see
system.mem_ctrls.rdQLenPdf::5                       0                       # What read queue length does an incoming req see
system.mem_ctrls.rdQLenPdf::6                       0                       # What read queue length does an incoming req see
system.mem_ctrls.rdQLenPdf::7                       0                       # What read queue length does an incoming req see
system.mem_ctrls.rdQLenPdf::8                       0                       # What read queue length does an incoming req see
system.mem_ctrls.rdQLenPdf::9                       0                       # What read queue length does an incoming req see
system.mem_ctrls.rdQLenPdf::10                      0                       # What read queue length does an incoming req see
system.mem_ctrls.rdQLenPdf::11                      0                       # What read queue length does an incoming req see
system.mem_ctrls.rdQLenPdf::12                      0                       # What read queue length does an incoming req see
system.mem_ctrls.rdQLenPdf::13                      0                       # What read queue length does an incoming req see
system.mem_ctrls.rdQLenPdf::14                      0                       # What read queue length does an incoming req see
system.mem_ctrls.rdQLenPdf::15                      0                       # What read queue length does an incoming req see
system.mem_ctrls.rdQLenPdf::16                      0                       # What read queue length does an incoming req see
system.mem_ctrls.rdQLenPdf::17                      0                       # What read queue length does an incoming req see
system.mem_ctrls.rdQLenPdf::18                      0                       # What read queue length does an incoming req see
system.mem_ctrls.rdQLenPdf::19                      0                       # What read queue length does an incoming req see
system.mem_ctrls.rdQLenPdf::20                      0                       # What read queue length does an incoming req see
system.mem_ctrls.rdQLenPdf::21                      0                       # What read queue length does an incoming req see
system.mem_ctrls.rdQLenPdf::22                      0                       # What read queue length does an incoming req see
system.mem_ctrls.rdQLenPdf::23                      0                       # What read queue length does an incoming req see
system.mem_ctrls.rdQLenPdf::24                      0                       # What read queue length does an incoming req see
system.mem_ctrls.rdQLenPdf::25                      0                       # What read queue length does an incoming req see
system.mem_ctrls.rdQLenPdf::26                      0                       # What read queue length does an incoming req see
system.mem_ctrls.rdQLenPdf::27                      0                       # What read queue length does an incoming req see
system.mem_ctrls.rdQLenPdf::28                      0                       # What read queue length does an incoming req see
system.mem_ctrls.rdQLenPdf::29                      0                       # What read queue length does an incoming req see
system.mem_ctrls.rdQLenPdf::30                      0                       # What read queue length does an incoming req see
system.mem_ctrls.rdQLenPdf::31                      0                       # What read queue length does an incoming req see
system.mem_ctrls.wrQLenPdf::0                       0                       # What write queue length does an incoming req see
system.mem_ctrls.wrQLenPdf::1                       0                       # What write queue length does an incoming req see
system.mem_ctrls.wrQLenPdf::2                       0                       # What write queue length does an incoming req see
system.mem_ctrls.wrQLenPdf::3                       0                       # What write queue length does an incoming req see
system.mem_ctrls.wrQLenPdf::4                       0                       # What write queue length does an incoming req see
system.mem_ctrls.wrQLenPdf::5                       0                       # What write queue length does an incoming req see
system.mem_ctrls.wrQLenPdf::6                       0                       # What write queue length does an incoming req see
system.mem_ctrls.wrQLenPdf::7                       0                       # What write queue length does an incoming req see
system.mem_ctrls.wrQLenPdf::8                       0                       # What write queue length does an incoming req see
system.mem_ctrls.wrQLenPdf::9                       0                       # What write queue length does an incoming req see
system.mem_ctrls.wrQLenPdf::10                      0                       # What write queue length does an incoming req see
system.mem_ctrls.wrQLenPdf::11                      0                       # What write queue length does an incoming req see
system.mem_ctrls.wrQLenPdf::12                      0                       # What write queue length does an incoming req see
system.mem_ctrls.wrQLenPdf::13                      0                       # What write queue length does an incoming req see
system.mem_ctrls.wrQLenPdf::14                      0                       # What write queue length does an incoming req see
system.mem_ctrls.wrQLenPdf::15                      0                       # What write queue length does an incoming req see
system.mem_ctrls.wrQLenPdf::16                      0                       # What write queue length does an incoming req see
system.mem_ctrls.wrQLenPdf::17                     21                       # What write queue length does an incoming req see
system.mem_ctrls.wrQLenPdf::18                     21                       # What write queue length does an incoming req see
system.mem_ctrls.wrQLenPdf::19                     21                       # What write queue length does an incoming req see
system.mem_ctrls.wrQLenPdf::20                     21                       # What write queue length does an incoming req see
system.mem_ctrls.wrQLenPdf::21                     21                       # What write queue length does an incoming req see
system.mem_ctrls.wrQLenPdf::22                     21                       # What write queue length does an incoming req see
system.mem_ctrls.wrQLenPdf::23                     21                       # What write queue length does an incoming req see
system.mem_ctrls.wrQLenPdf::24                     21                       # What write queue length does an incoming req see
system.mem_ctrls.wrQLenPdf::25                     21                       # What write queue length does an incoming req see
system.mem_ctrls.wrQLenPdf::26                     21                       # What write queue length does an incoming req see
system.mem_ctrls.wrQLenPdf::27                     21                       # What write queue length does an incoming req see
system.mem_ctrls.wrQLenPdf::28                     21                       # What write queue length does an incoming req see
system.mem_ctrls.wrQLenPdf::29                     21                       # What write queue length does an incoming req see
system.mem_ctrls.wrQLenPdf::30                     21                       # What write queue length does an incoming req see
system.mem_ctrls.wrQLenPdf::31                     21                       # What write queue length does an incoming req see
system.mem_ctrls.wrQLenPdf::32                     21                       # What write queue length does an incoming req see
system.mem_ctrls.wrQLenPdf::33                      0                       # What write queue length does an incoming req see
system.mem_ctrls.wrQLenPdf::34                      0                       # What write queue length does an incoming req see
system.mem_ctrls.wrQLenPdf::35                      0                       # What write queue length does an incoming req see
system.mem_ctrls.wrQLenPdf::36                      0                       # What write queue length does an incoming req see
system.mem_ctrls.wrQLenPdf::37                      0                       # What write queue length does an incoming req see
system.mem_ctrls.wrQLenPdf::38                      0                       # What write queue length does an incoming req see
system.mem_ctrls.wrQLenPdf::39                      0                       # What write queue length does an incoming req see
system.mem_ctrls.wrQLenPdf::40                      0                       # What write queue length does an incoming req see
system.mem_ctrls.wrQLenPdf::41                      0                       # What write queue length does an incoming req see
system.mem_ctrls.wrQLenPdf::42                      0                       # What write queue length does an incoming req see
system.mem_ctrls.wrQLenPdf::43                      0                       # What write queue length does an incoming req see
system.mem_ctrls.wrQLenPdf::44                      0                       # What write queue length does an incoming req see
system.mem_ctrls.wrQLenPdf::45                      0                       # What write queue length does an incoming req see
system.mem_ctrls.wrQLenPdf::46                      0                       # What write queue length does an incoming req see
system.mem_ctrls.wrQLenPdf::47                      0                       # What write queue length does an incoming req see
system.mem_ctrls.wrQLenPdf::48                      0                       # What write queue length does an incoming req see
system.mem_ctrls.wrQLenPdf::49                      0                       # What write queue length does an incoming req see
system.mem_ctrls.wrQLenPdf::50                      0                       # What write queue length does an incoming req see
system.mem_ctrls.wrQLenPdf::51                      0                       # What write queue length does an incoming req see
system.mem_ctrls.wrQLenPdf::52                      0                       # What write queue length does an incoming req see
system.mem_ctrls.wrQLenPdf::53                      0                       # What write queue length does an incoming req see
system.mem_ctrls.wrQLenPdf::54                      0                       # What write queue length does an incoming req see
system.mem_ctrls.wrQLenPdf::55                      0                       # What write queue length does an incoming req see
system.mem_ctrls.wrQLenPdf::56                      0                       # What write queue length does an incoming req see
system.mem_ctrls.wrQLenPdf::57                      0                       # What write queue length does an incoming req see
system.mem_ctrls.wrQLenPdf::58                      0                       # What write queue length does an incoming req see
system.mem_ctrls.wrQLenPdf::59                      0                       # What write queue length does an incoming req see
system.mem_ctrls.wrQLenPdf::60                      0                       # What write queue length does an incoming req see
system.mem_ctrls.wrQLenPdf::61                      0                       # What write queue length does an incoming req see
system.mem_ctrls.wrQLenPdf::62                      0                       # What write queue length does an incoming req see
system.mem_ctrls.wrQLenPdf::63                      0                       # What write queue length does an incoming req see
system.mem_ctrls.bytesPerActivate::samples        96626                       # Bytes accessed per row activation
system.mem_ctrls.bytesPerActivate::mean    130.774574                       # Bytes accessed per row activation
system.mem_ctrls.bytesPerActivate::gmean   112.333899                       # Bytes accessed per row activation
system.mem_ctrls.bytesPerActivate::stdev    77.812086                       # Bytes accessed per row activation
system.mem_ctrls.bytesPerActivate::0-127        40291     41.70%     41.70% # Bytes accessed per row activation
system.mem_ctrls.bytesPerActivate::128-255        44888     46.46%     88.15% # Bytes accessed per row activation
system.mem_ctrls.bytesPerActivate::256-383         9879     10.22%     98.38% # Bytes accessed per row activation
system.mem_ctrls.bytesPerActivate::384-511         1413      1.46%     99.84% # Bytes accessed per row activation
system.mem_ctrls.bytesPerActivate::512-639          124      0.13%     99.97% # Bytes accessed per row activation
system.mem_ctrls.bytesPerActivate::640-767           14      0.01%     99.98% # Bytes accessed per row activation
system.mem_ctrls.bytesPerActivate::768-895            6      0.01%     99.99% # Bytes accessed per row activation
system.mem_ctrls.bytesPerActivate::896-1023            3      0.00%     99.99% # Bytes accessed per row activation
system.mem_ctrls.bytesPerActivate::1024-1151            8      0.01%    100.00% # Bytes accessed per row activation
system.mem_ctrls.bytesPerActivate::total        96626                       # Bytes accessed per row activation
system.mem_ctrls.rdPerTurnAround::samples           21                       # Reads before turning the bus around for writes
system.mem_ctrls.rdPerTurnAround::mean    9717.666667                       # Reads before turning the bus around for writes
system.mem_ctrls.rdPerTurnAround::gmean   9512.605721                       # Reads before turning the bus around for writes
system.mem_ctrls.rdPerTurnAround::stdev   2079.774611                       # Reads before turning the bus around for writes
system.mem_ctrls.rdPerTurnAround::6656-7167            1      4.76%      4.76% # Reads before turning the bus around for writes
system.mem_ctrls.rdPerTurnAround::7168-7679            4     19.05%     23.81% # Reads before turning the bus around for writes
system.mem_ctrls.rdPerTurnAround::7680-8191            3     14.29%     38.10% # Reads before turning the bus around for writes
system.mem_ctrls.rdPerTurnAround::8704-9215            2      9.52%     47.62% # Reads before turning the bus around for writes
system.mem_ctrls.rdPerTurnAround::9728-10239            2      9.52%     57.14% # Reads before turning the bus around for writes
system.mem_ctrls.rdPerTurnAround::10752-11263            4     19.05%     76.19% # Reads before turning the bus around for writes
system.mem_ctrls.rdPerTurnAround::11264-11775            3     14.29%     90.48% # Reads before turning the bus around for writes
system.mem_ctrls.rdPerTurnAround::11776-12287            1      4.76%     95.24% # Reads before turning the bus around for writes
system.mem_ctrls.rdPerTurnAround::14848-15359            1      4.76%    100.00% # Reads before turning the bus around for writes
system.mem_ctrls.rdPerTurnAround::total            21                       # Reads before turning the bus around for writes
system.mem_ctrls.wrPerTurnAround::samples           21                       # Writes before turning the bus around for reads
system.mem_ctrls.wrPerTurnAround::mean             16                       # Writes before turning the bus around for reads
system.mem_ctrls.wrPerTurnAround::gmean     16.000000                       # Writes before turning the bus around for reads
system.mem_ctrls.wrPerTurnAround::16               21    100.00%    100.00% # Writes before turning the bus around for reads
system.mem_ctrls.wrPerTurnAround::total            21                       # Writes before turning the bus around for reads
system.mem_ctrls.totQLat                   4800937000                       # Total ticks spent queuing
system.mem_ctrls.totMemAccLat              8496637000                       # Total ticks spent from burst creation until serviced by the DRAM
system.mem_ctrls.totBusLat                  985520000                       # Total ticks spent in databus transfers
system.mem_ctrls.avgQLat                     24357.38                       # Average queueing delay per DRAM burst
system.mem_ctrls.avgBusLat                    5000.00                       # Average bus latency per DRAM burst
system.mem_ctrls.avgMemAccLat                43107.38                       # Average memory access latency per DRAM burst
system.mem_ctrls.avgRdBW                       826.25                       # Average DRAM read bandwidth in MiByte/s
system.mem_ctrls.avgWrBW                         1.41                       # Average achieved write bandwidth in MiByte/s
system.mem_ctrls.avgRdBWSys                    826.50                       # Average system read bandwidth in MiByte/s
system.mem_ctrls.avgWrBWSys                      1.43                       # Average system write bandwidth in MiByte/s
system.mem_ctrls.peakBW                      12800.00                       # Theoretical peak bandwidth in MiByte/s
system.mem_ctrls.busUtil                         6.47                       # Data bus utilization in percentage
system.mem_ctrls.busUtilRead                     6.46                       # Data bus utilization in percentage for reads
system.mem_ctrls.busUtilWrite                    0.01                       # Data bus utilization in percentage for writes
system.mem_ctrls.avgRdQLen                       1.32                       # Average read queue length when enqueuing
system.mem_ctrls.avgWrQLen                      25.71                       # Average write queue length when enqueuing
system.mem_ctrls.readRowHits                   100520                       # Number of row buffer hits during reads
system.mem_ctrls.writeRowHits                     293                       # Number of row buffer hits during writes
system.mem_ctrls.readRowHitRate                 51.00                       # Row buffer hit rate for reads
system.mem_ctrls.writeRowHitRate                87.20                       # Row buffer hit rate for writes
system.mem_ctrls.avgGap                      77301.21                       # Average gap between requests
system.mem_ctrls.pageHitRate                    51.06                       # Row buffer hit rate, read and write combined
system.mem_ctrls_0.actEnergy                344033760                       # Energy for activate commands per rank (pJ)
system.mem_ctrls_0.preEnergy                182850690                       # Energy for precharge commands per rank (pJ)
system.mem_ctrls_0.readEnergy               701276520                       # Energy for read commands per rank (pJ)
system.mem_ctrls_0.writeEnergy                1012680                       # Energy for write commands per rank (pJ)
system.mem_ctrls_0.refreshEnergy         1205309040.000000                       # Energy for refresh commands per rank (pJ)
system.mem_ctrls_0.actBackEnergy           1630062630                       # Energy for active background per rank (pJ)
system.mem_ctrls_0.preBackEnergy             24431040                       # Energy for precharge background per rank (pJ)
system.mem_ctrls_0.actPowerDownEnergy      5188716270                       # Energy for active power-down per rank (pJ)
system.mem_ctrls_0.prePowerDownEnergy        95962560                       # Energy for precharge power-down per rank (pJ)
system.mem_ctrls_0.selfRefreshEnergy     637740.000000                       # Energy for self refresh per rank (pJ)
system.mem_ctrls_0.totalEnergy             9374292930                       # Total energy per rank (pJ)
system.mem_ctrls_0.averagePower            614.009408                       # Core power per rank (mW)
system.mem_ctrls_0.totalIdleTime          11628996250                       # Total Idle time Per DRAM Rank
system.mem_ctrls_0.memoryStateTime::IDLE      9582000                       # Time in different power states
system.mem_ctrls_0.memoryStateTime::REF     509866000                       # Time in different power states
system.mem_ctrls_0.memoryStateTime::SREF       357000                       # Time in different power states
system.mem_ctrls_0.memoryStateTime::PRE_PDN    250014500                       # Time in different power states
system.mem_ctrls_0.memoryStateTime::ACT    3118778500                       # Time in different power states
system.mem_ctrls_0.memoryStateTime::ACT_PDN  11378746125                       # Time in different power states
system.mem_ctrls_1.actEnergy                345883020                       # Energy for activate commands per rank (pJ)
system.mem_ctrls_1.preEnergy                183844980                       # Energy for precharge commands per rank (pJ)
system.mem_ctrls_1.readEnergy               706046040                       # Energy for read commands per rank (pJ)
system.mem_ctrls_1.writeEnergy                 741240                       # Energy for write commands per rank (pJ)
system.mem_ctrls_1.refreshEnergy         1205309040.000000                       # Energy for refresh commands per rank (pJ)
system.mem_ctrls_1.actBackEnergy           1637759340                       # Energy for active background per rank (pJ)
system.mem_ctrls_1.preBackEnergy             24396480                       # Energy for precharge background per rank (pJ)
system.mem_ctrls_1.actPowerDownEnergy      5163345000                       # Energy for active power-down per rank (pJ)
system.mem_ctrls_1.prePowerDownEnergy       111017760                       # Energy for precharge power-down per rank (pJ)
system.mem_ctrls_1.selfRefreshEnergy                0                       # Energy for self refresh per rank (pJ)
system.mem_ctrls_1.totalEnergy             9378342900                       # Total energy per rank (pJ)
system.mem_ctrls_1.averagePower            614.274678                       # Core power per rank (mW)
system.mem_ctrls_1.totalIdleTime          11611133000                       # Total Idle time Per DRAM Rank
system.mem_ctrls_1.memoryStateTime::IDLE      9372000                       # Time in different power states
system.mem_ctrls_1.memoryStateTime::REF     509860000                       # Time in different power states
system.mem_ctrls_1.memoryStateTime::SREF            0                       # Time in different power states
system.mem_ctrls_1.memoryStateTime::PRE_PDN    288756250                       # Time in different power states
system.mem_ctrls_1.memoryStateTime::ACT    3136957000                       # Time in different power states
system.mem_ctrls_1.memoryStateTime::ACT_PDN  11322398875                       # Time in different power states
system.pwrStateResidencyTicks::UNDEFINED  15267344125                       # Cumulative time (in ticks) in various power states
system.cpu0.branchPred.lookups                1396770                       # Number of BP lookups
system.cpu0.branchPred.condPredicted          1396770                       # Number of conditional branches predicted
system.cpu0.branchPred.condIncorrect            51990                       # Number of conditional branches incorrect
system.cpu0.branchPred.BTBLookups             1016628                       # Number of BTB lookups
system.cpu0.branchPred.BTBHits                      0                       # Number of BTB hits
system.cpu0.branchPred.BTBCorrect                   0                       # Number of correct BTB predictions (this stat may not work properly.
system.cpu0.branchPred.BTBHitPct             0.000000                       # BTB Hit Percentage
system.cpu0.branchPred.usedRAS                  31218                       # Number of times the RAS was used to get a target.
system.cpu0.branchPred.RASInCorrect              4888                       # Number of incorrect RAS predictions.
system.cpu0.branchPred.indirectLookups        1016628                       # Number of indirect predictor lookups.
system.cpu0.branchPred.indirectHits            613363                       # Number of indirect target hits.
system.cpu0.branchPred.indirectMisses          403265                       # Number of indirect misses.
system.cpu0.branchPredindirectMispredicted        15250                       # Number of mispredicted indirect branches.
system.cpu_voltage_domain.voltage                   1                       # Voltage in Volts
system.cpu_clk_domain.clock                       500                       # Clock period in ticks
system.cpu0.dtb.walker.pwrStateResidencyTicks::UNDEFINED  15267344125                       # Cumulative time (in ticks) in various power states
system.cpu0.dtb.rdAccesses                     642542                       # TLB accesses on read requests
system.cpu0.dtb.wrAccesses                      36846                       # TLB accesses on write requests
system.cpu0.dtb.rdMisses                       140498                       # TLB misses on read requests
system.cpu0.dtb.wrMisses                          714                       # TLB misses on write requests
system.cpu0.apic_clk_domain.clock                8000                       # Clock period in ticks
system.cpu0.interrupts.pwrStateResidencyTicks::UNDEFINED  15267344125                       # Cumulative time (in ticks) in various power states
system.cpu0.itb.walker.pwrStateResidencyTicks::UNDEFINED  15267344125                       # Cumulative time (in ticks) in various power states
system.cpu0.itb.rdAccesses                          0                       # TLB accesses on read requests
system.cpu0.itb.wrAccesses                    1205300                       # TLB accesses on write requests
system.cpu0.itb.rdMisses                            0                       # TLB misses on read requests
system.cpu0.itb.wrMisses                         1804                       # TLB misses on write requests
system.cpu0.workload.numSyscalls                    0                       # Number of system calls
system.cpu0.pwrStateResidencyTicks::ON    15267344125                       # Cumulative time (in ticks) in various power states
system.cpu0.numCycles                        30534688                       # number of cpu cycles simulated
system.cpu0.numWorkItemsStarted                     0                       # number of work items this cpu started
system.cpu0.numWorkItemsCompleted                   0                       # number of work items this cpu completed
system.cpu0.fetch.icacheStallCycles           1229159                       # Number of cycles fetch is stalled on an Icache miss
system.cpu0.fetch.Insts                       3976824                       # Number of instructions fetch has processed
system.cpu0.fetch.Branches                    1396770                       # Number of branches that fetch encountered
system.cpu0.fetch.predictedBranches            644581                       # Number of branches that fetch has predicted taken
system.cpu0.fetch.Cycles                     29223295                       # Number of cycles fetch has run and was not squashing or blocked
system.cpu0.fetch.SquashCycles                 105134                       # Number of cycles fetch has spent squashing
system.cpu0.fetch.TlbCycles                      1136                       # Number of cycles fetch has spent waiting for tlb
system.cpu0.fetch.MiscStallCycles                 455                       # Number of cycles fetch has spent waiting on interrupts, or bad addresses, or out of MSHRs
system.cpu0.fetch.PendingTrapStallCycles        13767                       # Number of stall cycles due to pending traps
system.cpu0.fetch.CacheLines                  1203497                       # Number of cache lines fetched
system.cpu0.fetch.IcacheSquashes                 5329                       # Number of outstanding Icache misses that were squashed
system.cpu0.fetch.ItlbSquashes                      1                       # Number of outstanding ITLB misses that were squashed
system.cpu0.fetch.rateDist::samples          30520379                       # Number of instructions fetched each cycle (Total)
system.cpu0.fetch.rateDist::mean             0.261602                       # Number of instructions fetched each cycle (Total)
system.cpu0.fetch.rateDist::stdev            1.287296                       # Number of instructions fetched each cycle (Total)
system.cpu0.fetch.rateDist::underflows              0      0.00%      0.00% # Number of instructions fetched each cycle (Total)
system.cpu0.fetch.rateDist::0                28942590     94.83%     94.83% # Number of instructions fetched each cycle (Total)
system.cpu0.fetch.rateDist::1                   16651      0.05%     94.88% # Number of instructions fetched each cycle (Total)
system.cpu0.fetch.rateDist::2                  615477      2.02%     96.90% # Number of instructions fetched each cycle (Total)
system.cpu0.fetch.rateDist::3                   16594      0.05%     96.96% # Number of instructions fetched each cycle (Total)
system.cpu0.fetch.rateDist::4                  113405      0.37%     97.33% # Number of instructions fetched each cycle (Total)
system.cpu0.fetch.rateDist::5                   42079      0.14%     97.47% # Number of instructions fetched each cycle (Total)
system.cpu0.fetch.rateDist::6                   74819      0.25%     97.71% # Number of instructions fetched each cycle (Total)
system.cpu0.fetch.rateDist::7                   16251      0.05%     97.76% # Number of instructions fetched each cycle (Total)
system.cpu0.fetch.rateDist::8                  682513      2.24%    100.00% # Number of instructions fetched each cycle (Total)
system.cpu0.fetch.rateDist::overflows               0      0.00%    100.00% # Number of instructions fetched each cycle (Total)
system.cpu0.fetch.rateDist::min_value               0                       # Number of instructions fetched each cycle (Total)
system.cpu0.fetch.rateDist::max_value               8                       # Number of instructions fetched each cycle (Total)
system.cpu0.fetch.rateDist::total            30520379                       # Number of instructions fetched each cycle (Total)
system.cpu0.fetch.branchRate                 0.045744                       # Number of branch fetches per cycle
system.cpu0.fetch.rate                       0.130240                       # Number of inst fetches per cycle
system.cpu0.decode.IdleCycles                  575064                       # Number of cycles decode is idle
system.cpu0.decode.BlockedCycles             28879771                       # Number of cycles decode is blocked
system.cpu0.decode.RunCycles                   728453                       # Number of cycles decode is running
system.cpu0.decode.UnblockCycles               284524                       # Number of cycles decode is unblocking
system.cpu0.decode.SquashCycles                 52567                       # Number of cycles decode is squashing
system.cpu0.decode.DecodedInsts               6563413                       # Number of instructions handled by decode
system.cpu0.rename.SquashCycles                 52567                       # Number of cycles rename is squashing
system.cpu0.rename.IdleCycles                  653572                       # Number of cycles rename is idle
system.cpu0.rename.BlockCycles               27747808                       # Number of cycles rename is blocking
system.cpu0.rename.serializeStallCycles          9317                       # count of cycles rename stalled for serializing inst
system.cpu0.rename.RunCycles                   860447                       # Number of cycles rename is running
system.cpu0.rename.UnblockCycles              1196668                       # Number of cycles rename is unblocking
system.cpu0.rename.RenamedInsts               6313600                       # Number of instructions processed by rename
system.cpu0.rename.ROBFullEvents                45901                       # Number of times rename has blocked due to ROB full
system.cpu0.rename.IQFullEvents                970561                       # Number of times rename has blocked due to IQ full
system.cpu0.rename.LQFullEvents                178061                       # Number of times rename has blocked due to LQ full
system.cpu0.rename.SQFullEvents                  1143                       # Number of times rename has blocked due to SQ full
system.cpu0.rename.RenamedOperands            7537713                       # Number of destination operands rename has renamed
system.cpu0.rename.RenameLookups             17702690                       # Number of register rename lookups that rename has made
system.cpu0.rename.int_rename_lookups         8188136                       # Number of integer rename lookups
system.cpu0.rename.fp_rename_lookups            32012                       # Number of floating rename lookups
system.cpu0.rename.CommittedMaps              2798358                       # Number of HB maps that are committed
system.cpu0.rename.UndoneMaps                 4739352                       # Number of HB maps that are undone due to squashing
system.cpu0.rename.serializingInsts               253                       # count of serializing insts renamed
system.cpu0.rename.tempSerializingInsts           288                       # count of temporary serializing insts renamed
system.cpu0.rename.skidInsts                  1832861                       # count of insts added to the skid buffer
system.cpu0.memDep0.insertedLoads             1161827                       # Number of loads inserted to the mem dependence unit.
system.cpu0.memDep0.insertedStores              52711                       # Number of stores inserted to the mem dependence unit.
system.cpu0.memDep0.conflictingLoads             2553                       # Number of conflicting loads.
system.cpu0.memDep0.conflictingStores            3098                       # Number of conflicting stores.
system.cpu0.iq.iqInstsAdded                   6023475                       # Number of instructions added to the IQ (excludes non-spec)
system.cpu0.iq.iqNonSpecInstsAdded               3616                       # Number of non-speculative instructions added to the IQ
system.cpu0.iq.iqInstsIssued                  4268846                       # Number of instructions issued
system.cpu0.iq.iqSquashedInstsIssued             3787                       # Number of squashed instructions issued
system.cpu0.iq.iqSquashedInstsExamined        3690986                       # Number of squashed instructions iterated over during squash; mainly for profiling
system.cpu0.iq.iqSquashedOperandsExamined      8075871                       # Number of squashed operands that are examined and possibly removed from graph
system.cpu0.iq.iqSquashedNonSpecRemoved          3616                       # Number of squashed non-spec instructions that were removed
system.cpu0.iq.issued_per_cycle::samples     30520379                       # Number of insts issued each cycle
system.cpu0.iq.issued_per_cycle::mean        0.139869                       # Number of insts issued each cycle
system.cpu0.iq.issued_per_cycle::stdev       0.675299                       # Number of insts issued each cycle
system.cpu0.iq.issued_per_cycle::underflows            0      0.00%      0.00% # Number of insts issued each cycle
system.cpu0.iq.issued_per_cycle::0           28724752     94.12%     94.12% # Number of insts issued each cycle
system.cpu0.iq.issued_per_cycle::1             730313      2.39%     96.51% # Number of insts issued each cycle
system.cpu0.iq.issued_per_cycle::2             384326      1.26%     97.77% # Number of insts issued each cycle
system.cpu0.iq.issued_per_cycle::3             257846      0.84%     98.61% # Number of insts issued each cycle
system.cpu0.iq.issued_per_cycle::4             263730      0.86%     99.48% # Number of insts issued each cycle
system.cpu0.iq.issued_per_cycle::5              66246      0.22%     99.69% # Number of insts issued each cycle
system.cpu0.iq.issued_per_cycle::6              57784      0.19%     99.88% # Number of insts issued each cycle
system.cpu0.iq.issued_per_cycle::7              19567      0.06%     99.95% # Number of insts issued each cycle
system.cpu0.iq.issued_per_cycle::8              15815      0.05%    100.00% # Number of insts issued each cycle
system.cpu0.iq.issued_per_cycle::overflows            0      0.00%    100.00% # Number of insts issued each cycle
system.cpu0.iq.issued_per_cycle::min_value            0                       # Number of insts issued each cycle
system.cpu0.iq.issued_per_cycle::max_value            8                       # Number of insts issued each cycle
system.cpu0.iq.issued_per_cycle::total       30520379                       # Number of insts issued each cycle
system.cpu0.iq.fu_full::No_OpClass                  0      0.00%      0.00% # attempts to use FU when none available
system.cpu0.iq.fu_full::IntAlu                   7955     69.78%     69.78% # attempts to use FU when none available
system.cpu0.iq.fu_full::IntMult                     0      0.00%     69.78% # attempts to use FU when none available
system.cpu0.iq.fu_full::IntDiv                      0      0.00%     69.78% # attempts to use FU when none available
system.cpu0.iq.fu_full::FloatAdd                  970      8.51%     78.29% # attempts to use FU when none available
system.cpu0.iq.fu_full::FloatCmp                    0      0.00%     78.29% # attempts to use FU when none available
system.cpu0.iq.fu_full::FloatCvt                    0      0.00%     78.29% # attempts to use FU when none available
system.cpu0.iq.fu_full::FloatMult                   0      0.00%     78.29% # attempts to use FU when none available
system.cpu0.iq.fu_full::FloatMultAcc                0      0.00%     78.29% # attempts to use FU when none available
system.cpu0.iq.fu_full::FloatDiv                    0      0.00%     78.29% # attempts to use FU when none available
system.cpu0.iq.fu_full::FloatMisc                   0      0.00%     78.29% # attempts to use FU when none available
system.cpu0.iq.fu_full::FloatSqrt                   0      0.00%     78.29% # attempts to use FU when none available
system.cpu0.iq.fu_full::SimdAdd                     0      0.00%     78.29% # attempts to use FU when none available
system.cpu0.iq.fu_full::SimdAddAcc                  0      0.00%     78.29% # attempts to use FU when none available
system.cpu0.iq.fu_full::SimdAlu                     0      0.00%     78.29% # attempts to use FU when none available
system.cpu0.iq.fu_full::SimdCmp                     0      0.00%     78.29% # attempts to use FU when none available
system.cpu0.iq.fu_full::SimdCvt                     0      0.00%     78.29% # attempts to use FU when none available
system.cpu0.iq.fu_full::SimdMisc                    0      0.00%     78.29% # attempts to use FU when none available
system.cpu0.iq.fu_full::SimdMult                    0      0.00%     78.29% # attempts to use FU when none available
system.cpu0.iq.fu_full::SimdMultAcc                 0      0.00%     78.29% # attempts to use FU when none available
system.cpu0.iq.fu_full::SimdShift                   0      0.00%     78.29% # attempts to use FU when none available
system.cpu0.iq.fu_full::SimdShiftAcc                0      0.00%     78.29% # attempts to use FU when none available
system.cpu0.iq.fu_full::SimdSqrt                    0      0.00%     78.29% # attempts to use FU when none available
system.cpu0.iq.fu_full::SimdFloatAdd                0      0.00%     78.29% # attempts to use FU when none available
system.cpu0.iq.fu_full::SimdFloatAlu                0      0.00%     78.29% # attempts to use FU when none available
system.cpu0.iq.fu_full::SimdFloatCmp                0      0.00%     78.29% # attempts to use FU when none available
system.cpu0.iq.fu_full::SimdFloatCvt                0      0.00%     78.29% # attempts to use FU when none available
system.cpu0.iq.fu_full::SimdFloatDiv                0      0.00%     78.29% # attempts to use FU when none available
system.cpu0.iq.fu_full::SimdFloatMisc               0      0.00%     78.29% # attempts to use FU when none available
system.cpu0.iq.fu_full::SimdFloatMult               0      0.00%     78.29% # attempts to use FU when none available
system.cpu0.iq.fu_full::SimdFloatMultAcc            0      0.00%     78.29% # attempts to use FU when none available
system.cpu0.iq.fu_full::SimdFloatSqrt               0      0.00%     78.29% # attempts to use FU when none available
system.cpu0.iq.fu_full::MemRead                  2157     18.92%     97.21% # attempts to use FU when none available
system.cpu0.iq.fu_full::MemWrite                  204      1.79%     99.00% # attempts to use FU when none available
system.cpu0.iq.fu_full::FloatMemRead               80      0.70%     99.70% # attempts to use FU when none available
system.cpu0.iq.fu_full::FloatMemWrite              34      0.30%    100.00% # attempts to use FU when none available
system.cpu0.iq.fu_full::IprAccess                   0      0.00%    100.00% # attempts to use FU when none available
system.cpu0.iq.fu_full::InstPrefetch                0      0.00%    100.00% # attempts to use FU when none available
system.cpu0.iq.FU_type_0::No_OpClass            11108      0.26%      0.26% # Type of FU issued
system.cpu0.iq.FU_type_0::IntAlu              3532484     82.75%     83.01% # Type of FU issued
system.cpu0.iq.FU_type_0::IntMult                 514      0.01%     83.02% # Type of FU issued
system.cpu0.iq.FU_type_0::IntDiv                 7508      0.18%     83.20% # Type of FU issued
system.cpu0.iq.FU_type_0::FloatAdd              11880      0.28%     83.48% # Type of FU issued
system.cpu0.iq.FU_type_0::FloatCmp                  0      0.00%     83.48% # Type of FU issued
system.cpu0.iq.FU_type_0::FloatCvt                  0      0.00%     83.48% # Type of FU issued
system.cpu0.iq.FU_type_0::FloatMult                 0      0.00%     83.48% # Type of FU issued
system.cpu0.iq.FU_type_0::FloatMultAcc              0      0.00%     83.48% # Type of FU issued
system.cpu0.iq.FU_type_0::FloatDiv                  0      0.00%     83.48% # Type of FU issued
system.cpu0.iq.FU_type_0::FloatMisc                 0      0.00%     83.48% # Type of FU issued
system.cpu0.iq.FU_type_0::FloatSqrt                 0      0.00%     83.48% # Type of FU issued
system.cpu0.iq.FU_type_0::SimdAdd                   0      0.00%     83.48% # Type of FU issued
system.cpu0.iq.FU_type_0::SimdAddAcc                0      0.00%     83.48% # Type of FU issued
system.cpu0.iq.FU_type_0::SimdAlu                   0      0.00%     83.48% # Type of FU issued
system.cpu0.iq.FU_type_0::SimdCmp                   0      0.00%     83.48% # Type of FU issued
system.cpu0.iq.FU_type_0::SimdCvt                   0      0.00%     83.48% # Type of FU issued
system.cpu0.iq.FU_type_0::SimdMisc                  0      0.00%     83.48% # Type of FU issued
system.cpu0.iq.FU_type_0::SimdMult                  0      0.00%     83.48% # Type of FU issued
system.cpu0.iq.FU_type_0::SimdMultAcc               0      0.00%     83.48% # Type of FU issued
system.cpu0.iq.FU_type_0::SimdShift                 0      0.00%     83.48% # Type of FU issued
system.cpu0.iq.FU_type_0::SimdShiftAcc              0      0.00%     83.48% # Type of FU issued
system.cpu0.iq.FU_type_0::SimdSqrt                  0      0.00%     83.48% # Type of FU issued
system.cpu0.iq.FU_type_0::SimdFloatAdd              0      0.00%     83.48% # Type of FU issued
system.cpu0.iq.FU_type_0::SimdFloatAlu              0      0.00%     83.48% # Type of FU issued
system.cpu0.iq.FU_type_0::SimdFloatCmp              0      0.00%     83.48% # Type of FU issued
system.cpu0.iq.FU_type_0::SimdFloatCvt              0      0.00%     83.48% # Type of FU issued
system.cpu0.iq.FU_type_0::SimdFloatDiv              0      0.00%     83.48% # Type of FU issued
system.cpu0.iq.FU_type_0::SimdFloatMisc             0      0.00%     83.48% # Type of FU issued
system.cpu0.iq.FU_type_0::SimdFloatMult             0      0.00%     83.48% # Type of FU issued
system.cpu0.iq.FU_type_0::SimdFloatMultAcc            0      0.00%     83.48% # Type of FU issued
system.cpu0.iq.FU_type_0::SimdFloatSqrt             0      0.00%     83.48% # Type of FU issued
system.cpu0.iq.FU_type_0::MemRead              664029     15.56%     99.03% # Type of FU issued
system.cpu0.iq.FU_type_0::MemWrite              39267      0.92%     99.95% # Type of FU issued
system.cpu0.iq.FU_type_0::FloatMemRead           1920      0.04%    100.00% # Type of FU issued
system.cpu0.iq.FU_type_0::FloatMemWrite           136      0.00%    100.00% # Type of FU issued
system.cpu0.iq.FU_type_0::IprAccess                 0      0.00%    100.00% # Type of FU issued
system.cpu0.iq.FU_type_0::InstPrefetch              0      0.00%    100.00% # Type of FU issued
system.cpu0.iq.FU_type_0::total               4268846                       # Type of FU issued
system.cpu0.iq.rate                          0.139803                       # Inst issue rate
system.cpu0.iq.fu_busy_cnt                      11400                       # FU busy when requested
system.cpu0.iq.fu_busy_rate                  0.002671                       # FU busy rate (busy events/executed inst)
system.cpu0.iq.int_inst_queue_reads          39044117                       # Number of integer instruction queue reads
system.cpu0.iq.int_inst_queue_writes          9690486                       # Number of integer instruction queue writes
system.cpu0.iq.int_inst_queue_wakeup_accesses      4111493                       # Number of integer instruction queue wakeup accesses
system.cpu0.iq.fp_inst_queue_reads              29141                       # Number of floating instruction queue reads
system.cpu0.iq.fp_inst_queue_writes             27592                       # Number of floating instruction queue writes
system.cpu0.iq.fp_inst_queue_wakeup_accesses        12862                       # Number of floating instruction queue wakeup accesses
system.cpu0.iq.vec_inst_queue_reads                 0                       # Number of vector instruction queue reads
system.cpu0.iq.vec_inst_queue_writes                0                       # Number of vector instruction queue writes
system.cpu0.iq.vec_inst_queue_wakeup_accesses            0                       # Number of vector instruction queue wakeup accesses
system.cpu0.iq.int_alu_accesses               4254109                       # Number of integer alu accesses
system.cpu0.iq.fp_alu_accesses                  15029                       # Number of floating point alu accesses
system.cpu0.iq.vec_alu_accesses                     0                       # Number of vector alu accesses
system.cpu0.iew.lsq.thread0.forwLoads            3551                       # Number of loads that had data forwarded from stores
system.cpu0.iew.lsq.thread0.invAddrLoads            0                       # Number of loads ignored due to an invalid address
system.cpu0.iew.lsq.thread0.squashedLoads       717444                       # Number of loads squashed
system.cpu0.iew.lsq.thread0.ignoredResponses          129                       # Number of memory responses ignored because the instruction is squashed
system.cpu0.iew.lsq.thread0.memOrderViolation            2                       # Number of memory ordering violations
system.cpu0.iew.lsq.thread0.squashedStores        30691                       # Number of stores squashed
system.cpu0.iew.lsq.thread0.invAddrSwpfs            0                       # Number of software prefetches ignored due to an invalid address
system.cpu0.iew.lsq.thread0.blockedLoads            0                       # Number of blocked loads due to partial load-store forwarding
system.cpu0.iew.lsq.thread0.rescheduledLoads           29                       # Number of loads that were rescheduled
system.cpu0.iew.lsq.thread0.cacheBlocked         1431                       # Number of times an access to memory failed due to the cache being blocked
system.cpu0.iew.iewIdleCycles                       0                       # Number of cycles IEW is idle
system.cpu0.iew.iewSquashCycles                 52567                       # Number of cycles IEW is squashing
system.cpu0.iew.iewBlockCycles               26300652                       # Number of cycles IEW is blocking
system.cpu0.iew.iewUnblockCycles               243874                       # Number of cycles IEW is unblocking
system.cpu0.iew.iewDispatchedInsts            6027091                       # Number of instructions dispatched to IQ
system.cpu0.iew.iewDispSquashedInsts             2666                       # Number of squashed instructions skipped by dispatch
system.cpu0.iew.iewDispLoadInsts              1161827                       # Number of dispatched load instructions
system.cpu0.iew.iewDispStoreInsts               52711                       # Number of dispatched store instructions
system.cpu0.iew.iewDispNonSpecInsts              1367                       # Number of dispatched non-speculative instructions
system.cpu0.iew.iewIQFullEvents                 12619                       # Number of times the IQ has become full, causing a stall
system.cpu0.iew.iewLSQFullEvents                43516                       # Number of times the LSQ has become full, causing a stall
system.cpu0.iew.memOrderViolationEvents             2                       # Number of memory order violations
system.cpu0.iew.predictedTakenIncorrect         30510                       # Number of branches that were predicted taken incorrectly
system.cpu0.iew.predictedNotTakenIncorrect        26882                       # Number of branches that were predicted not taken incorrectly
system.cpu0.iew.branchMispredicts               57392                       # Number of branch mispredicts detected at execute
system.cpu0.iew.iewExecutedInsts              4206341                       # Number of executed instructions
system.cpu0.iew.iewExecLoadInsts               642302                       # Number of load instructions executed
system.cpu0.iew.iewExecSquashedInsts            62505                       # Number of squashed instructions skipped in execute
system.cpu0.iew.exec_swp                            0                       # number of swp insts executed
system.cpu0.iew.exec_nop                            0                       # number of nop insts executed
system.cpu0.iew.exec_refs                      679142                       # number of memory reference insts executed
system.cpu0.iew.exec_branches                  510706                       # Number of branches executed
system.cpu0.iew.exec_stores                     36840                       # Number of stores executed
system.cpu0.iew.exec_rate                    0.137756                       # Inst execution rate
system.cpu0.iew.wb_sent                       4135812                       # cumulative count of insts sent to commit
system.cpu0.iew.wb_count                      4124355                       # cumulative count of insts written-back
system.cpu0.iew.wb_producers                  3027445                       # num instructions producing a value
system.cpu0.iew.wb_consumers                  4779395                       # num instructions consuming a value
system.cpu0.iew.wb_rate                      0.135071                       # insts written-back per cycle
system.cpu0.iew.wb_fanout                    0.633437                       # average fanout of values written-back
system.cpu0.commit.commitSquashedInsts        3691406                       # The number of squashed insts skipped by commit
system.cpu0.commit.branchMispredicts            52566                       # The number of times a branch was mispredicted
system.cpu0.commit.committed_per_cycle::samples     30007522                       # Number of insts commited each cycle
system.cpu0.commit.committed_per_cycle::mean     0.077851                       # Number of insts commited each cycle
system.cpu0.commit.committed_per_cycle::stdev     0.508193                       # Number of insts commited each cycle
system.cpu0.commit.committed_per_cycle::underflows            0      0.00%      0.00% # Number of insts commited each cycle
system.cpu0.commit.committed_per_cycle::0     28976308     96.56%     96.56% # Number of insts commited each cycle
system.cpu0.commit.committed_per_cycle::1       480377      1.60%     98.16% # Number of insts commited each cycle
system.cpu0.commit.committed_per_cycle::2       113075      0.38%     98.54% # Number of insts commited each cycle
system.cpu0.commit.committed_per_cycle::3       312592      1.04%     99.58% # Number of insts commited each cycle
system.cpu0.commit.committed_per_cycle::4        53811      0.18%     99.76% # Number of insts commited each cycle
system.cpu0.commit.committed_per_cycle::5        27178      0.09%     99.85% # Number of insts commited each cycle
system.cpu0.commit.committed_per_cycle::6         4664      0.02%     99.87% # Number of insts commited each cycle
system.cpu0.commit.committed_per_cycle::7         3454      0.01%     99.88% # Number of insts commited each cycle
system.cpu0.commit.committed_per_cycle::8        36063      0.12%    100.00% # Number of insts commited each cycle
system.cpu0.commit.committed_per_cycle::overflows            0      0.00%    100.00% # Number of insts commited each cycle
system.cpu0.commit.committed_per_cycle::min_value            0                       # Number of insts commited each cycle
system.cpu0.commit.committed_per_cycle::max_value            8                       # Number of insts commited each cycle
system.cpu0.commit.committed_per_cycle::total     30007522                       # Number of insts commited each cycle
system.cpu0.commit.committedInsts             1168526                       # Number of instructions committed
system.cpu0.commit.committedOps               2336103                       # Number of ops (including micro ops) committed
system.cpu0.commit.swp_count                        0                       # Number of s/w prefetches committed
system.cpu0.commit.refs                        466402                       # Number of memory references committed
system.cpu0.commit.loads                       444382                       # Number of loads committed
system.cpu0.commit.membars                          0                       # Number of memory barriers committed
system.cpu0.commit.branches                    423895                       # Number of branches committed
system.cpu0.commit.vec_insts                        0                       # Number of committed Vector instructions.
system.cpu0.commit.fp_insts                      8806                       # Number of committed floating point instructions.
system.cpu0.commit.int_insts                  2327229                       # Number of committed integer instructions.
system.cpu0.commit.function_calls                3875                       # Number of function calls committed.
system.cpu0.commit.op_class_0::No_OpClass         2632      0.11%      0.11% # Class of committed instruction
system.cpu0.commit.op_class_0::IntAlu         1853047     79.32%     79.43% # Class of committed instruction
system.cpu0.commit.op_class_0::IntMult            155      0.01%     79.44% # Class of committed instruction
system.cpu0.commit.op_class_0::IntDiv            6343      0.27%     79.71% # Class of committed instruction
system.cpu0.commit.op_class_0::FloatAdd          7524      0.32%     80.04% # Class of committed instruction
system.cpu0.commit.op_class_0::FloatCmp             0      0.00%     80.04% # Class of committed instruction
system.cpu0.commit.op_class_0::FloatCvt             0      0.00%     80.04% # Class of committed instruction
system.cpu0.commit.op_class_0::FloatMult            0      0.00%     80.04% # Class of committed instruction
system.cpu0.commit.op_class_0::FloatMultAcc            0      0.00%     80.04% # Class of committed instruction
system.cpu0.commit.op_class_0::FloatDiv             0      0.00%     80.04% # Class of committed instruction
system.cpu0.commit.op_class_0::FloatMisc            0      0.00%     80.04% # Class of committed instruction
system.cpu0.commit.op_class_0::FloatSqrt            0      0.00%     80.04% # Class of committed instruction
system.cpu0.commit.op_class_0::SimdAdd              0      0.00%     80.04% # Class of committed instruction
system.cpu0.commit.op_class_0::SimdAddAcc            0      0.00%     80.04% # Class of committed instruction
system.cpu0.commit.op_class_0::SimdAlu              0      0.00%     80.04% # Class of committed instruction
system.cpu0.commit.op_class_0::SimdCmp              0      0.00%     80.04% # Class of committed instruction
system.cpu0.commit.op_class_0::SimdCvt              0      0.00%     80.04% # Class of committed instruction
system.cpu0.commit.op_class_0::SimdMisc             0      0.00%     80.04% # Class of committed instruction
system.cpu0.commit.op_class_0::SimdMult             0      0.00%     80.04% # Class of committed instruction
system.cpu0.commit.op_class_0::SimdMultAcc            0      0.00%     80.04% # Class of committed instruction
system.cpu0.commit.op_class_0::SimdShift            0      0.00%     80.04% # Class of committed instruction
system.cpu0.commit.op_class_0::SimdShiftAcc            0      0.00%     80.04% # Class of committed instruction
system.cpu0.commit.op_class_0::SimdSqrt             0      0.00%     80.04% # Class of committed instruction
system.cpu0.commit.op_class_0::SimdFloatAdd            0      0.00%     80.04% # Class of committed instruction
system.cpu0.commit.op_class_0::SimdFloatAlu            0      0.00%     80.04% # Class of committed instruction
system.cpu0.commit.op_class_0::SimdFloatCmp            0      0.00%     80.04% # Class of committed instruction
system.cpu0.commit.op_class_0::SimdFloatCvt            0      0.00%     80.04% # Class of committed instruction
system.cpu0.commit.op_class_0::SimdFloatDiv            0      0.00%     80.04% # Class of committed instruction
system.cpu0.commit.op_class_0::SimdFloatMisc            0      0.00%     80.04% # Class of committed instruction
system.cpu0.commit.op_class_0::SimdFloatMult            0      0.00%     80.04% # Class of committed instruction
system.cpu0.commit.op_class_0::SimdFloatMultAcc            0      0.00%     80.04% # Class of committed instruction
system.cpu0.commit.op_class_0::SimdFloatSqrt            0      0.00%     80.04% # Class of committed instruction
system.cpu0.commit.op_class_0::MemRead         443100     18.97%     99.00% # Class of committed instruction
system.cpu0.commit.op_class_0::MemWrite         22020      0.94%     99.95% # Class of committed instruction
system.cpu0.commit.op_class_0::FloatMemRead         1282      0.05%    100.00% # Class of committed instruction
system.cpu0.commit.op_class_0::FloatMemWrite            0      0.00%    100.00% # Class of committed instruction
system.cpu0.commit.op_class_0::IprAccess            0      0.00%    100.00% # Class of committed instruction
system.cpu0.commit.op_class_0::InstPrefetch            0      0.00%    100.00% # Class of committed instruction
system.cpu0.commit.op_class_0::total          2336103                       # Class of committed instruction
system.cpu0.commit.bw_lim_events                36063                       # number cycles where commit BW limit reached
system.cpu0.rob.rob_reads                    35998968                       # The number of ROB reads
system.cpu0.rob.rob_writes                   12569066                       # The number of ROB writes
system.cpu0.timesIdled                            111                       # Number of times that the entire CPU went into an idle state and unscheduled itself
system.cpu0.idleCycles                          14309                       # Total number of cycles that the CPU has spent unscheduled due to idling
system.cpu0.committedInsts                    1168526                       # Number of Instructions Simulated
system.cpu0.committedOps                      2336103                       # Number of Ops (including micro ops) Simulated
system.cpu0.cpi                             26.130944                       # CPI: Cycles Per Instruction
system.cpu0.cpi_total                       26.130944                       # CPI: Total CPI of All Threads
system.cpu0.ipc                              0.038269                       # IPC: Instructions Per Cycle
system.cpu0.ipc_total                        0.038269                       # IPC: Total IPC of All Threads
system.cpu0.int_regfile_reads                 4108892                       # number of integer regfile reads
system.cpu0.int_regfile_writes                3580622                       # number of integer regfile writes
system.cpu0.fp_regfile_reads                    23105                       # number of floating regfile reads
system.cpu0.fp_regfile_writes                   11514                       # number of floating regfile writes
system.cpu0.cc_regfile_reads                  2712302                       # number of cc regfile reads
system.cpu0.cc_regfile_writes                 1125455                       # number of cc regfile writes
system.cpu0.misc_regfile_reads                2246588                       # number of misc regfile reads
system.cpu0.dcache.tags.pwrStateResidencyTicks::UNDEFINED  15267344125                       # Cumulative time (in ticks) in various power states
system.cpu0.dcache.tags.replacements           232489                       # number of replacements
system.cpu0.dcache.tags.tagsinuse                1024                       # Cycle average of tags in use
system.cpu0.dcache.tags.total_refs             243878                       # Total number of references to valid blocks.
system.cpu0.dcache.tags.sampled_refs           232489                       # Sample count of references to valid blocks.
system.cpu0.dcache.tags.avg_refs             1.048987                       # Average number of references to valid blocks.
system.cpu0.dcache.tags.warmup_cycle                0                       # Cycle when the warmup percentage was hit.
system.cpu0.dcache.tags.occ_blocks::cpu0.data         1024                       # Average occupied blocks per requestor
system.cpu0.dcache.tags.occ_percent::cpu0.data            1                       # Average percentage of cache occupancy
system.cpu0.dcache.tags.occ_percent::total            1                       # Average percentage of cache occupancy
system.cpu0.dcache.tags.occ_task_id_blocks::1024         1024                       # Occupied blocks per task id
system.cpu0.dcache.tags.age_task_id_blocks_1024::0          129                       # Occupied blocks per task id
system.cpu0.dcache.tags.age_task_id_blocks_1024::1          811                       # Occupied blocks per task id
system.cpu0.dcache.tags.age_task_id_blocks_1024::2           84                       # Occupied blocks per task id
system.cpu0.dcache.tags.occ_task_id_percent::1024            1                       # Percentage of cache occupancy per task id
system.cpu0.dcache.tags.tag_accesses          2860245                       # Number of tag accesses
system.cpu0.dcache.tags.data_accesses         2860245                       # Number of data accesses
system.cpu0.dcache.pwrStateResidencyTicks::UNDEFINED  15267344125                       # Cumulative time (in ticks) in various power states
system.cpu0.dcache.ReadReq_hits::cpu0.data       224355                       # number of ReadReq hits
system.cpu0.dcache.ReadReq_hits::total         224355                       # number of ReadReq hits
system.cpu0.dcache.WriteReq_hits::cpu0.data        21145                       # number of WriteReq hits
system.cpu0.dcache.WriteReq_hits::total         21145                       # number of WriteReq hits
system.cpu0.dcache.demand_hits::cpu0.data       245500                       # number of demand (read+write) hits
system.cpu0.dcache.demand_hits::total          245500                       # number of demand (read+write) hits
system.cpu0.dcache.overall_hits::cpu0.data       245500                       # number of overall hits
system.cpu0.dcache.overall_hits::total         245500                       # number of overall hits
system.cpu0.dcache.ReadReq_misses::cpu0.data       410564                       # number of ReadReq misses
system.cpu0.dcache.ReadReq_misses::total       410564                       # number of ReadReq misses
system.cpu0.dcache.WriteReq_misses::cpu0.data          875                       # number of WriteReq misses
system.cpu0.dcache.WriteReq_misses::total          875                       # number of WriteReq misses
system.cpu0.dcache.demand_misses::cpu0.data       411439                       # number of demand (read+write) misses
system.cpu0.dcache.demand_misses::total        411439                       # number of demand (read+write) misses
system.cpu0.dcache.overall_misses::cpu0.data       411439                       # number of overall misses
system.cpu0.dcache.overall_misses::total       411439                       # number of overall misses
system.cpu0.dcache.ReadReq_miss_latency::cpu0.data  34567435000                       # number of ReadReq miss cycles
system.cpu0.dcache.ReadReq_miss_latency::total  34567435000                       # number of ReadReq miss cycles
system.cpu0.dcache.WriteReq_miss_latency::cpu0.data     31874496                       # number of WriteReq miss cycles
system.cpu0.dcache.WriteReq_miss_latency::total     31874496                       # number of WriteReq miss cycles
system.cpu0.dcache.demand_miss_latency::cpu0.data  34599309496                       # number of demand (read+write) miss cycles
system.cpu0.dcache.demand_miss_latency::total  34599309496                       # number of demand (read+write) miss cycles
system.cpu0.dcache.overall_miss_latency::cpu0.data  34599309496                       # number of overall miss cycles
system.cpu0.dcache.overall_miss_latency::total  34599309496                       # number of overall miss cycles
system.cpu0.dcache.ReadReq_accesses::cpu0.data       634919                       # number of ReadReq accesses(hits+misses)
system.cpu0.dcache.ReadReq_accesses::total       634919                       # number of ReadReq accesses(hits+misses)
system.cpu0.dcache.WriteReq_accesses::cpu0.data        22020                       # number of WriteReq accesses(hits+misses)
system.cpu0.dcache.WriteReq_accesses::total        22020                       # number of WriteReq accesses(hits+misses)
system.cpu0.dcache.demand_accesses::cpu0.data       656939                       # number of demand (read+write) accesses
system.cpu0.dcache.demand_accesses::total       656939                       # number of demand (read+write) accesses
system.cpu0.dcache.overall_accesses::cpu0.data       656939                       # number of overall (read+write) accesses
system.cpu0.dcache.overall_accesses::total       656939                       # number of overall (read+write) accesses
system.cpu0.dcache.ReadReq_miss_rate::cpu0.data     0.646640                       # miss rate for ReadReq accesses
system.cpu0.dcache.ReadReq_miss_rate::total     0.646640                       # miss rate for ReadReq accesses
system.cpu0.dcache.WriteReq_miss_rate::cpu0.data     0.039737                       # miss rate for WriteReq accesses
system.cpu0.dcache.WriteReq_miss_rate::total     0.039737                       # miss rate for WriteReq accesses
system.cpu0.dcache.demand_miss_rate::cpu0.data     0.626297                       # miss rate for demand accesses
system.cpu0.dcache.demand_miss_rate::total     0.626297                       # miss rate for demand accesses
system.cpu0.dcache.overall_miss_rate::cpu0.data     0.626297                       # miss rate for overall accesses
system.cpu0.dcache.overall_miss_rate::total     0.626297                       # miss rate for overall accesses
system.cpu0.dcache.ReadReq_avg_miss_latency::cpu0.data 84194.997613                       # average ReadReq miss latency
system.cpu0.dcache.ReadReq_avg_miss_latency::total 84194.997613                       # average ReadReq miss latency
[...]
system.l2.ReadSharedReq_accesses::total        231619                       # number of ReadSharedReq accesses(hits+misses)
system.l2.demand_accesses::cpu0.inst                2                       # number of demand (read+write) accesses
system.l2.demand_accesses::cpu0.data           232490                       # number of demand (read+write) accesses
system.l2.demand_accesses::total               232492                       # number of demand (read+write) accesses
system.l2.overall_accesses::cpu0.inst               2                       # number of overall (read+write) accesses
system.l2.overall_accesses::cpu0.data          232490                       # number of overall (read+write) accesses
system.l2.overall_accesses::total              232492                       # number of overall (read+write) accesses
system.l2.ReadExReq_miss_rate::cpu0.data     0.247991                       # miss rate for ReadExReq accesses
system.l2.ReadExReq_miss_rate::total         0.247991                       # miss rate for ReadExReq accesses
system.l2.ReadCleanReq_miss_rate::cpu0.inst            1                       # miss rate for ReadCleanReq accesses
system.l2.ReadCleanReq_miss_rate::total             1                       # miss rate for ReadCleanReq accesses
system.l2.ReadSharedReq_miss_rate::cpu0.data     0.850297                       # miss rate for ReadSharedReq accesses
system.l2.ReadSharedReq_miss_rate::total     0.850297                       # miss rate for ReadSharedReq accesses
system.l2.demand_miss_rate::cpu0.inst               1                       # miss rate for demand accesses
system.l2.demand_miss_rate::cpu0.data        0.848041                       # miss rate for demand accesses
system.l2.demand_miss_rate::total            0.848042                       # miss rate for demand accesses
system.l2.overall_miss_rate::cpu0.inst              1                       # miss rate for overall accesses
system.l2.overall_miss_rate::cpu0.data       0.848041                       # miss rate for overall accesses
system.l2.overall_miss_rate::total           0.848042                       # miss rate for overall accesses
system.l2.ReadExReq_avg_miss_latency::cpu0.data 103414.351852                       # average ReadExReq miss latency
system.l2.ReadExReq_avg_miss_latency::total 103414.351852                       # average ReadExReq miss latency
system.l2.ReadCleanReq_avg_miss_latency::cpu0.inst        97000                       # average ReadCleanReq miss latency
system.l2.ReadCleanReq_avg_miss_latency::total        97000                       # average ReadCleanReq miss latency
system.l2.ReadSharedReq_avg_miss_latency::cpu0.data 94695.800858                       # average ReadSharedReq miss latency
system.l2.ReadSharedReq_avg_miss_latency::total 94695.800858                       # average ReadSharedReq miss latency
system.l2.demand_avg_miss_latency::cpu0.inst        97000                       # average overall miss latency
system.l2.demand_avg_miss_latency::cpu0.data 94705.352478                       # average overall miss latency
system.l2.demand_avg_miss_latency::total 94705.375755                       # average overall miss latency
system.l2.overall_avg_miss_latency::cpu0.inst        97000                       # average overall miss latency
system.l2.overall_avg_miss_latency::cpu0.data 94705.352478                       # average overall miss latency
system.l2.overall_avg_miss_latency::total 94705.375755                       # average overall miss latency
system.l2.blocked_cycles::no_mshrs                  0                       # number of cycles access was blocked
system.l2.blocked_cycles::no_targets                0                       # number of cycles access was blocked
system.l2.blocked::no_mshrs                         0                       # number of cycles access was blocked
system.l2.blocked::no_targets                       0                       # number of cycles access was blocked
system.l2.avg_blocked_cycles::no_mshrs            nan                       # average number of cycles each access was blocked
system.l2.avg_blocked_cycles::no_targets          nan                       # average number of cycles each access was blocked
system.l2.writebacks::writebacks                  342                       # number of writebacks
system.l2.writebacks::total                       342                       # number of writebacks
system.l2.ReadExReq_mshr_misses::cpu0.data          216                       # number of ReadExReq MSHR misses
system.l2.ReadExReq_mshr_misses::total            216                       # number of ReadExReq MSHR misses
system.l2.ReadCleanReq_mshr_misses::cpu0.inst            2                       # number of ReadCleanReq MSHR misses
system.l2.ReadCleanReq_mshr_misses::total            2                       # number of ReadCleanReq MSHR misses
system.l2.ReadSharedReq_mshr_misses::cpu0.data       196945                       # number of ReadSharedReq MSHR misses
system.l2.ReadSharedReq_mshr_misses::total       196945                       # number of ReadSharedReq MSHR misses
system.l2.demand_mshr_misses::cpu0.inst             2                       # number of demand (read+write) MSHR misses
system.l2.demand_mshr_misses::cpu0.data        197161                       # number of demand (read+write) MSHR misses
system.l2.demand_mshr_misses::total            197163                       # number of demand (read+write) MSHR misses
system.l2.overall_mshr_misses::cpu0.inst            2                       # number of overall MSHR misses
system.l2.overall_mshr_misses::cpu0.data       197161                       # number of overall MSHR misses
system.l2.overall_mshr_misses::total           197163                       # number of overall MSHR misses
system.l2.ReadExReq_mshr_miss_latency::cpu0.data     20177500                       # number of ReadExReq MSHR miss cycles
system.l2.ReadExReq_mshr_miss_latency::total     20177500                       # number of ReadExReq MSHR miss cycles
system.l2.ReadCleanReq_mshr_miss_latency::cpu0.inst       174000                       # number of ReadCleanReq MSHR miss cycles
system.l2.ReadCleanReq_mshr_miss_latency::total       174000                       # number of ReadCleanReq MSHR miss cycles
system.l2.ReadSharedReq_mshr_miss_latency::cpu0.data  16680434500                       # number of ReadSharedReq MSHR miss cycles
system.l2.ReadSharedReq_mshr_miss_latency::total  16680434500                       # number of ReadSharedReq MSHR miss cycles
system.l2.demand_mshr_miss_latency::cpu0.inst       174000                       # number of demand (read+write) MSHR miss cycles
system.l2.demand_mshr_miss_latency::cpu0.data  16700612000                       # number of demand (read+write) MSHR miss cycles
system.l2.demand_mshr_miss_latency::total  16700786000                       # number of demand (read+write) MSHR miss cycles
system.l2.overall_mshr_miss_latency::cpu0.inst       174000                       # number of overall MSHR miss cycles
system.l2.overall_mshr_miss_latency::cpu0.data  16700612000                       # number of overall MSHR miss cycles
system.l2.overall_mshr_miss_latency::total  16700786000                       # number of overall MSHR miss cycles
system.l2.ReadExReq_mshr_miss_rate::cpu0.data     0.247991                       # mshr miss rate for ReadExReq accesses
system.l2.ReadExReq_mshr_miss_rate::total     0.247991                       # mshr miss rate for ReadExReq accesses
system.l2.ReadCleanReq_mshr_miss_rate::cpu0.inst            1                       # mshr miss rate for ReadCleanReq accesses
system.l2.ReadCleanReq_mshr_miss_rate::total            1                       # mshr miss rate for ReadCleanReq accesses
system.l2.ReadSharedReq_mshr_miss_rate::cpu0.data     0.850297                       # mshr miss rate for ReadSharedReq accesses
system.l2.ReadSharedReq_mshr_miss_rate::total     0.850297                       # mshr miss rate for ReadSharedReq accesses
system.l2.demand_mshr_miss_rate::cpu0.inst            1                       # mshr miss rate for demand accesses
system.l2.demand_mshr_miss_rate::cpu0.data     0.848041                       # mshr miss rate for demand accesses
system.l2.demand_mshr_miss_rate::total       0.848042                       # mshr miss rate for demand accesses
system.l2.overall_mshr_miss_rate::cpu0.inst            1                       # mshr miss rate for overall accesses
system.l2.overall_mshr_miss_rate::cpu0.data     0.848041                       # mshr miss rate for overall accesses
system.l2.overall_mshr_miss_rate::total      0.848042                       # mshr miss rate for overall accesses
system.l2.ReadExReq_avg_mshr_miss_latency::cpu0.data 93414.351852                       # average ReadExReq mshr miss latency
system.l2.ReadExReq_avg_mshr_miss_latency::total 93414.351852                       # average ReadExReq mshr miss latency
system.l2.ReadCleanReq_avg_mshr_miss_latency::cpu0.inst        87000                       # average ReadCleanReq mshr miss latency
system.l2.ReadCleanReq_avg_mshr_miss_latency::total        87000                       # average ReadCleanReq mshr miss latency
system.l2.ReadSharedReq_avg_mshr_miss_latency::cpu0.data 84695.902409                       # average ReadSharedReq mshr miss latency
system.l2.ReadSharedReq_avg_mshr_miss_latency::total 84695.902409                       # average ReadSharedReq mshr miss latency
system.l2.demand_avg_mshr_miss_latency::cpu0.inst        87000                       # average overall mshr miss latency
system.l2.demand_avg_mshr_miss_latency::cpu0.data 84705.453918                       # average overall mshr miss latency
system.l2.demand_avg_mshr_miss_latency::total 84705.477194                       # average overall mshr miss latency
system.l2.overall_avg_mshr_miss_latency::cpu0.inst        87000                       # average overall mshr miss latency
system.l2.overall_avg_mshr_miss_latency::cpu0.data 84705.453918                       # average overall mshr miss latency
system.l2.overall_avg_mshr_miss_latency::total 84705.477194                       # average overall mshr miss latency
system.membus.snoop_filter.tot_requests        394318                       # Total number of requests made to the snoop filter.
system.membus.snoop_filter.hit_single_requests       197161                       # Number of requests hitting in the snoop filter with a single holder of the requested data.
system.membus.snoop_filter.hit_multi_requests            0                       # Number of requests hitting in the snoop filter with multiple (>1) holders of the requested data.
system.membus.snoop_filter.tot_snoops               0                       # Total number of snoops made to the snoop filter.
system.membus.snoop_filter.hit_single_snoops            0                       # Number of snoops hitting in the snoop filter with a single holder of the requested data.
system.membus.snoop_filter.hit_multi_snoops            0                       # Number of snoops hitting in the snoop filter with multiple (>1) holders of the requested data.
system.membus.pwrStateResidencyTicks::UNDEFINED  15267344125                       # Cumulative time (in ticks) in various power states
system.membus.trans_dist::ReadResp             196945                       # Transaction distribution
system.membus.trans_dist::WritebackDirty          342                       # Transaction distribution
system.membus.trans_dist::CleanEvict           196813                       # Transaction distribution
system.membus.trans_dist::ReadExReq               216                       # Transaction distribution
system.membus.trans_dist::ReadExResp              216                       # Transaction distribution
system.membus.trans_dist::ReadSharedReq        196947                       # Transaction distribution
system.membus.pkt_count_system.l2.mem_side::system.mem_ctrls.port       591479                       # Packet count per connected master and slave (bytes)
system.membus.pkt_count_system.l2.mem_side::total       591479                       # Packet count per connected master and slave (bytes)
system.membus.pkt_count::total                 591479                       # Packet count per connected master and slave (bytes)
system.membus.pkt_size_system.l2.mem_side::system.mem_ctrls.port     12640192                       # Cumulative packet size per connected master and slave (bytes)
system.membus.pkt_size_system.l2.mem_side::total     12640192                       # Cumulative packet size per connected master and slave (bytes)
system.membus.pkt_size::total                12640192                       # Cumulative packet size per connected master and slave (bytes)
system.membus.snoops                                0                       # Total snoops (count)
system.membus.snoopTraffic                          0                       # Total snoop traffic (bytes)
system.membus.snoop_fanout::samples            197163                       # Request fanout histogram
system.membus.snoop_fanout::mean                    0                       # Request fanout histogram
system.membus.snoop_fanout::stdev                   0                       # Request fanout histogram
system.membus.snoop_fanout::underflows              0      0.00%      0.00% # Request fanout histogram
system.membus.snoop_fanout::0                  197163    100.00%    100.00% # Request fanout histogram
system.membus.snoop_fanout::1                       0      0.00%    100.00% # Request fanout histogram
system.membus.snoop_fanout::overflows               0      0.00%    100.00% # Request fanout histogram
system.membus.snoop_fanout::min_value               0                       # Request fanout histogram
system.membus.snoop_fanout::max_value               0                       # Request fanout histogram
system.membus.snoop_fanout::total              197163                       # Request fanout histogram
system.membus.reqLayer4.occupancy           465189500                       # Layer occupancy (ticks)
system.membus.reqLayer4.utilization               3.0                       # Layer utilization (%)
system.membus.respLayer1.occupancy         1064423250                       # Layer occupancy (ticks)
system.membus.respLayer1.utilization              7.0                       # Layer utilization (%)
system.tol2bus.snoop_filter.tot_requests       464983                       # Total number of requests made to the snoop filter.
system.tol2bus.snoop_filter.hit_single_requests       232491                       # Number of requests hitting in the snoop filter with a single holder of the requested data.
system.tol2bus.snoop_filter.hit_multi_requests          618                       # Number of requests hitting in the snoop filter with multiple (>1) holders of the requested data.
system.tol2bus.snoop_filter.tot_snoops             10                       # Total number of snoops made to the snoop filter.
system.tol2bus.snoop_filter.hit_single_snoops           10                       # Number of snoops hitting in the snoop filter with a single holder of the requested data.
system.tol2bus.snoop_filter.hit_multi_snoops            0                       # Number of snoops hitting in the snoop filter with multiple (>1) holders of the requested data.
system.tol2bus.pwrStateResidencyTicks::UNDEFINED  15267344125                       # Cumulative time (in ticks) in various power states
system.tol2bus.trans_dist::ReadResp            231620                       # Transaction distribution
system.tol2bus.trans_dist::WritebackDirty         2529                       # Transaction distribution
system.tol2bus.trans_dist::WritebackClean            2                       # Transaction distribution
system.tol2bus.trans_dist::CleanEvict          427124                       # Transaction distribution
system.tol2bus.trans_dist::ReadExReq              871                       # Transaction distribution
system.tol2bus.trans_dist::ReadExResp             871                       # Transaction distribution
system.tol2bus.trans_dist::ReadCleanReq             2                       # Transaction distribution
system.tol2bus.trans_dist::ReadSharedReq       231619                       # Transaction distribution
system.tol2bus.pkt_count_system.cpu0.icache.mem_side::system.l2.cpu_side            6                       # Packet count per connected master and slave (bytes)
system.tol2bus.pkt_count_system.cpu0.dcache.mem_side::system.l2.cpu_side       697468                       # Packet count per connected master and slave (bytes)
system.tol2bus.pkt_count::total                697474                       # Packet count per connected master and slave (bytes)
system.tol2bus.pkt_size_system.cpu0.icache.mem_side::system.l2.cpu_side          256                       # Cumulative packet size per connected master and slave (bytes)
system.tol2bus.pkt_size_system.cpu0.dcache.mem_side::system.l2.cpu_side     15019264                       # Cumulative packet size per connected master and slave (bytes)
system.tol2bus.pkt_size::total               15019520                       # Cumulative packet size per connected master and slave (bytes)
system.tol2bus.snoops                          197164                       # Total snoops (count)
system.tol2bus.snoopTraffic                     21888                       # Total snoop traffic (bytes)
system.tol2bus.snoop_fanout::samples           429656                       # Request fanout histogram
system.tol2bus.snoop_fanout::mean            0.001462                       # Request fanout histogram
system.tol2bus.snoop_fanout::stdev           0.038203                       # Request fanout histogram
system.tol2bus.snoop_fanout::underflows             0      0.00%      0.00% # Request fanout histogram
system.tol2bus.snoop_fanout::0                 429028     99.85%     99.85% # Request fanout histogram
system.tol2bus.snoop_fanout::1                    628      0.15%    100.00% # Request fanout histogram
system.tol2bus.snoop_fanout::2                      0      0.00%    100.00% # Request fanout histogram
system.tol2bus.snoop_fanout::3                      0      0.00%    100.00% # Request fanout histogram
system.tol2bus.snoop_fanout::4                      0      0.00%    100.00% # Request fanout histogram
system.tol2bus.snoop_fanout::5                      0      0.00%    100.00% # Request fanout histogram
system.tol2bus.snoop_fanout::6                      0      0.00%    100.00% # Request fanout histogram
system.tol2bus.snoop_fanout::7                      0      0.00%    100.00% # Request fanout histogram
system.tol2bus.snoop_fanout::8                      0      0.00%    100.00% # Request fanout histogram
system.tol2bus.snoop_fanout::overflows              0      0.00%    100.00% # Request fanout histogram
system.tol2bus.snoop_fanout::min_value              0                       # Request fanout histogram
system.tol2bus.snoop_fanout::max_value              1                       # Request fanout histogram
system.tol2bus.snoop_fanout::total             429656                       # Request fanout histogram
system.tol2bus.reqLayer0.occupancy          234680500                       # Layer occupancy (ticks)
system.tol2bus.reqLayer0.utilization              1.5                       # Layer utilization (%)
system.tol2bus.respLayer0.occupancy              3000                       # Layer occupancy (ticks)
system.tol2bus.respLayer0.utilization             0.0                       # Layer utilization (%)
system.tol2bus.respLayer1.occupancy         348733500                       # Layer occupancy (ticks)
system.tol2bus.respLayer1.utilization             2.3                       # Layer utilization (%)

---------- End Simulation Statistics   ----------
