
---------- Begin Simulation Statistics ----------
sim_seconds                                  0.015267                       # Number of seconds simulated
sim_ticks                                 15267344125                       # Number of ticks simulated
final_tick                               580159076750                       # Number of ticks from beginning of simulation (restored from checkpoints and never reset)
sim_freq                                 1000000000000                       # Frequency of simulated ticks
host_inst_rate                                4800766                       # Simulator instruction rate (inst/s)
host_op_rate                                  9073713                       # Simulator op (including micro ops) rate (op/s)
host_tick_rate                               57428605                       # Simulator tick rate (ticks/s)
host_mem_usage                                3399996                       # Number of bytes of host memory used
host_seconds                                   265.85                       # Real time elapsed on the host
sim_insts                                  1276279251                       # Number of instructions simulated
sim_ops                                    2412238592                       # Number of ops (including micro ops) simulated
system.voltage_domain.voltage                       1                       # Voltage in Volts
system.clk_domain.clock                          1000                       # Clock period in ticks
system.mem_ctrls.pwrStateResidencyTicks::UNDEFINED  15267344125                       # Cumulative time (in ticks) in various power states
system.mem_ctrls.bytes_read::cpu0.data         232832                       # Number of bytes read from this memory
system.mem_ctrls.bytes_read::total             232832                       # Number of bytes read from this memory
system.mem_ctrls.bytes_written::writebacks       131968                       # Number of bytes written to this memory
system.mem_ctrls.bytes_written::total          131968                       # Number of bytes written to this memory
system.mem_ctrls.num_reads::cpu0.data            3638                       # Number of read requests responded to by this memory
system.mem_ctrls.num_reads::total                3638                       # Number of read requests responded to by this memory
system.mem_ctrls.num_writes::writebacks          2062                       # Number of write requests responded to by this memory
system.mem_ctrls.num_writes::total               2062                       # Number of write requests responded to by this memory
system.mem_ctrls.bw_read::cpu0.data          15250328                       # Total read bandwidth from this memory (bytes/s)
system.mem_ctrls.bw_read::total              15250328                       # Total read bandwidth from this memory (bytes/s)
system.mem_ctrls.bw_write::writebacks         8643809                       # Write bandwidth from this memory (bytes/s)
system.mem_ctrls.bw_write::total              8643809                       # Write bandwidth from this memory (bytes/s)
system.mem_ctrls.bw_total::writebacks         8643809                       # Total bandwidth to/from this memory (bytes/s)
system.mem_ctrls.bw_total::cpu0.data         15250328                       # Total bandwidth to/from this memory (bytes/s)
system.mem_ctrls.bw_total::total             23894136                       # Total bandwidth to/from this memory (bytes/s)
system.mem_ctrls.readReqs                        3638                       # Number of read requests accepted
system.mem_ctrls.writeReqs                       2062                       # Number of write requests accepted
system.mem_ctrls.readBursts                      3638                       # Number of DRAM read bursts, including those serviced by the write queue
system.mem_ctrls.writeBursts                     2062                       # Number of DRAM write bursts, including those merged in the write queue
system.mem_ctrls.bytesReadDRAM                 232704                       # Total number of bytes read from DRAM
system.mem_ctrls.bytesReadWrQ                     128                       # Total number of bytes read from write queue
system.mem_ctrls.bytesWritten                  131008                       # Total number of bytes written to DRAM
system.mem_ctrls.bytesReadSys                  232832                       # Total read bytes from the system interface side
system.mem_ctrls.bytesWrittenSys               131968                       # Total written bytes from the system interface side
system.mem_ctrls.servicedByWrQ                      2                       # Number of DRAM read bursts serviced by the write queue
system.mem_ctrls.mergedWrBursts                     0                       # Number of DRAM write bursts merged with an existing one
system.mem_ctrls.neitherReadNorWriteReqs            0                       # Number of requests that are neither read nor write
system.mem_ctrls.perBankRdBursts::0               384                       # Per bank write bursts
system.mem_ctrls.perBankRdBursts::1               384                       # Per bank write bursts
system.mem_ctrls.perBankRdBursts::2               336                       # Per bank write bursts
system.mem_ctrls.perBankRdBursts::3               135                       # Per bank write bursts
system.mem_ctrls.perBankRdBursts::4               128                       # Per bank write bursts
system.mem_ctrls.perBankRdBursts::5               128                       # Per bank write bursts
system.mem_ctrls.perBankRdBursts::6               128                       # Per bank write bursts
system.mem_ctrls.perBankRdBursts::7               128                       # Per bank write bursts
system.mem_ctrls.perBankRdBursts::8               128                       # Per bank write bursts
system.mem_ctrls.perBankRdBursts::9               128                       # Per bank write bursts
system.mem_ctrls.perBankRdBursts::10              199                       # Per bank write bursts
system.mem_ctrls.perBankRdBursts::11              368                       # Per bank write bursts
system.mem_ctrls.perBankRdBursts::12              297                       # Per bank write bursts
system.mem_ctrls.perBankRdBursts::13              242                       # Per bank write bursts
system.mem_ctrls.perBankRdBursts::14              262                       # Per bank write bursts
system.mem_ctrls.perBankRdBursts::15              261                       # Per bank write bursts
system.mem_ctrls.perBankWrBursts::0               259                       # Per bank write bursts
system.mem_ctrls.perBankWrBursts::1               275                       # Per bank write bursts
system.mem_ctrls.perBankWrBursts::2               208                       # Per bank write bursts
system.mem_ctrls.perBankWrBursts::3                 2                       # Per bank write bursts
system.mem_ctrls.perBankWrBursts::4                10                       # Per bank write bursts
system.mem_ctrls.perBankWrBursts::5                10                       # Per bank write bursts
system.mem_ctrls.perBankWrBursts::6                17                       # Per bank write bursts
system.mem_ctrls.perBankWrBursts::7                58                       # Per bank write bursts
system.mem_ctrls.perBankWrBursts::8                32                       # Per bank write bursts
system.mem_ctrls.perBankWrBursts::9                39                       # Per bank write bursts
system.mem_ctrls.perBankWrBursts::10               88                       # Per bank write bursts
system.mem_ctrls.perBankWrBursts::11              299                       # Per bank write bursts
system.mem_ctrls.perBankWrBursts::12              299                       # Per bank write bursts
system.mem_ctrls.perBankWrBursts::13              187                       # Per bank write bursts
system.mem_ctrls.perBankWrBursts::14              134                       # Per bank write bursts
system.mem_ctrls.perBankWrBursts::15              130                       # Per bank write bursts
system.mem_ctrls.numRdRetry                         0                       # Number of times read queue was full causing retry
system.mem_ctrls.numWrRetry                         0                       # Number of times write queue was full causing retry
system.mem_ctrls.totGap                   15263361000                       # Total gap between requests
system.mem_ctrls.readPktSize::0                     0                       # Read request sizes (log2)
system.mem_ctrls.readPktSize::1                     0                       # Read request sizes (log2)
system.mem_ctrls.readPktSize::2                     0                       # Read request sizes (log2)
system.mem_ctrls.readPktSize::3                     0                       # Read request sizes (log2)
system.mem_ctrls.readPktSize::4                     0                       # Read request sizes (log2)
system.mem_ctrls.readPktSize::5                     0                       # Read request sizes (log2)
system.mem_ctrls.readPktSize::6                  3638                       # Read request sizes (log2)
system.mem_ctrls.writePktSize::0                    0                       # Write request sizes (log2)
system.mem_ctrls.writePktSize::1                    0                       # Write request sizes (log2)
system.mem_ctrls.writePktSize::2                    0                       # Write request sizes (log2)
system.mem_ctrls.writePktSize::3                    0                       # Write request sizes (log2)
system.mem_ctrls.writePktSize::4                    0                       # Write request sizes (log2)
system.mem_ctrls.writePktSize::5                    0                       # Write request sizes (log2)
system.mem_ctrls.writePktSize::6                 2062                       # Write request sizes (log2)
system.mem_ctrls.rdQLenPdf::0                    3634                       # What read queue length does an incoming req see
system.mem_ctrls.rdQLenPdf::1                       2                       # What read queue length does an incoming req see
system.mem_ctrls.rdQLenPdf::2                       0                       # What read queue length does an incoming req see
system.mem_ctrls.rdQLenPdf::3                       0                       # What read queue length does an incoming req see
system.mem_ctrls.rdQLenPdf::4                       0                       # What read queue length does an incoming req see
system.mem_ctrls.rdQLenPdf::5                       0                       # What read queue length does an incoming req see
system.mem_ctrls.rdQLenPdf::6                       0                       # What read queue length does an incoming req see
system.mem_ctrls.rdQLenPdf::7                       0                       # What read queue length does an incoming req see
system.mem_ctrls.rdQLenPdf::8                       0                       # What read queue length does an incoming req see
system.mem_ctrls.rdQLenPdf::9                       0                       # What read queue length does an incoming req see
system.mem_ctrls.rdQLenPdf::10                      0                       # What read queue length does an incoming req see
system.mem_ctrls.rdQLenPdf::11                      0                       # What read queue length does an incoming req see
system.mem_ctrls.rdQLenPdf::12                      0                       # What read queue length does an incoming req see
system.mem_ctrls.rdQLenPdf::13                      0                       # What read queue length does an incoming req see
system.mem_ctrls.rdQLenPdf::14                      0                       # What read queue length does an incoming req see
system.mem_ctrls.rdQLenPdf::15                      0                       # What read queue length does an incoming req see
system.mem_ctrls.rdQLenPdf::16                      0                       # What read queue length does an incoming req see
system.mem_ctrls.rdQLenPdf::17                      0                       # What read queue length does an incoming req see
system.mem_ctrls.rdQLenPdf::18                      0                       # What read queue length does an incoming req see
system.mem_ctrls.rdQLenPdf::19                      0                       # What read queue length does an incoming req see
system.mem_ctrls.rdQLenPdf::20                      0                       # What read queue length does an incoming req see
system.mem_ctrls.rdQLenPdf::21                      0                       # What read queue length does an incoming req see
system.mem_ctrls.rdQLenPdf::22                      0                       # What read queue length does an incoming req see
system.mem_ctrls.rdQLenPdf::23                      0                       # What read queue length does an incoming req see
system.mem_ctrls.rdQLenPdf::24                      0                       # What read queue length does an incoming req see
system.mem_ctrls.rdQLenPdf::25                      0                       # What read queue length does an incoming req see
system.mem_ctrls.rdQLenPdf::26                      0                       # What read queue length does an incoming req see
system.mem_ctrls.rdQLenPdf::27                      0                       # What read queue length does an incoming req see
system.mem_ctrls.rdQLenPdf::28                      0                       # What read queue length does an incoming req see
system.mem_ctrls.rdQLenPdf::29                      0                       # What read queue length does an incoming req see
system.mem_ctrls.rdQLenPdf::30                      0                       # What read queue length does an incoming req see
system.mem_ctrls.rdQLenPdf::31                      0                       # What read queue length does an incoming req see
system.mem_ctrls.wrQLenPdf::0                       0                       # What write queue length does an incoming req see
system.mem_ctrls.wrQLenPdf::1                       0                       # What write queue length does an incoming req see
system.mem_ctrls.wrQLenPdf::2                       0                       # What write queue length does an incoming req see
system.mem_ctrls.wrQLenPdf::3                       0                       # What write queue length does an incoming req see
system.mem_ctrls.wrQLenPdf::4                       0                       # What write queue length does an incoming req see
system.mem_ctrls.wrQLenPdf::5                       0                       # What write queue length does an incoming req see
system.mem_ctrls.wrQLenPdf::6                       0                       # What write queue length does an incoming req see
system.mem_ctrls.wrQLenPdf::7                       0                       # What write queue length does an incoming req see
system.mem_ctrls.wrQLenPdf::8                       0                       # What write queue length does an incoming req see
system.mem_ctrls.wrQLenPdf::9                       0                       # What write queue length does an incoming req see
system.mem_ctrls.wrQLenPdf::10                      0                       # What write queue length does an incoming req see
system.mem_ctrls.wrQLenPdf::11                      0                       # What write queue length does an incoming req see
system.mem_ctrls.wrQLenPdf::12                      0                       # What write queue length does an incoming req see
system.mem_ctrls.wrQLenPdf::13                      0                       # What write queue length does an incoming req see
system.mem_ctrls.wrQLenPdf::14                      0                       # What write queue length does an incoming req see
system.mem_ctrls.wrQLenPdf::15                    103                       # What write queue length does an incoming req see
system.mem_ctrls.wrQLenPdf::16                    104                       # What write queue length does an incoming req see
system.mem_ctrls.wrQLenPdf::17                    116                       # What write queue length does an incoming req see
system.mem_ctrls.wrQLenPdf::18                    116                       # What write queue length does an incoming req see
system.mem_ctrls.wrQLenPdf::19                    116                       # What write queue length does an incoming req see
system.mem_ctrls.wrQLenPdf::20                    116                       # What write queue length does an incoming req see
system.mem_ctrls.wrQLenPdf::21                    116                       # What write queue length does an incoming req see
system.mem_ctrls.wrQLenPdf::22                    116                       # What write queue length does an incoming req see
system.mem_ctrls.wrQLenPdf::23                    116                       # What write queue length does an incoming req see
system.mem_ctrls.wrQLenPdf::24                    116                       # What write queue length does an incoming req see
system.mem_ctrls.wrQLenPdf::25                    116                       # What write queue length does an incoming req see
system.mem_ctrls.wrQLenPdf::26                    116                       # What write queue length does an incoming req see
system.mem_ctrls.wrQLenPdf::27                    116                       # What write queue length does an incoming req see
system.mem_ctrls.wrQLenPdf::28                    116                       # What write queue length does an incoming req see
system.mem_ctrls.wrQLenPdf::29                    116                       # What write queue length does an incoming req see
system.mem_ctrls.wrQLenPdf::30                    116                       # What write queue length does an incoming req see
system.mem_ctrls.wrQLenPdf::31                    116                       # What write queue length does an incoming req see
system.mem_ctrls.wrQLenPdf::32                    115                       # What write queue length does an incoming req see
system.mem_ctrls.wrQLenPdf::33                      0                       # What write queue length does an incoming req see
system.mem_ctrls.wrQLenPdf::34                      0                       # What write queue length does an incoming req see
system.mem_ctrls.wrQLenPdf::35                      0                       # What write queue length does an incoming req see
system.mem_ctrls.wrQLenPdf::36                      0                       # What write queue length does an incoming req see
system.mem_ctrls.wrQLenPdf::37                      0                       # What write queue length does an incoming req see
system.mem_ctrls.wrQLenPdf::38                      0                       # What write queue length does an incoming req see
system.mem_ctrls.wrQLenPdf::39                      0                       # What write queue length does an incoming req see
system.mem_ctrls.wrQLenPdf::40                      0                       # What write queue length does an incoming req see
system.mem_ctrls.wrQLenPdf::41                      0                       # What write queue length does an incoming req see
system.mem_ctrls.wrQLenPdf::42                      0                       # What write queue length does an incoming req see
system.mem_ctrls.wrQLenPdf::43                      0                       # What write queue length does an incoming req see
system.mem_ctrls.wrQLenPdf::44                      0                       # What write queue length does an incoming req see
system.mem_ctrls.wrQLenPdf::45                      0                       # What write queue length does an incoming req see
system.mem_ctrls.wrQLenPdf::46                      0                       # What write queue length does an incoming req see
system.mem_ctrls.wrQLenPdf::47                      0                       # What write queue length does an incoming req see
system.mem_ctrls.wrQLenPdf::48                      0                       # What write queue length does an incoming req see
system.mem_ctrls.wrQLenPdf::49                      0                       # What write queue length does an incoming req see
system.mem_ctrls.wrQLenPdf::50                      0                       # What write queue length does an incoming req see
system.mem_ctrls.wrQLenPdf::51                      0                       # What write queue length does an incoming req see
system.mem_ctrls.wrQLenPdf::52                      0                       # What write queue length does an incoming req see
system.mem_ctrls.wrQLenPdf::53                      0                       # What write queue length does an incoming req see
system.mem_ctrls.wrQLenPdf::54                      0                       # What write queue length does an incoming req see
system.mem_ctrls.wrQLenPdf::55                      0                       # What write queue length does an incoming req see
system.mem_ctrls.wrQLenPdf::56                      0                       # What write queue length does an incoming req see
system.mem_ctrls.wrQLenPdf::57                      0                       # What write queue length does an incoming req see
system.mem_ctrls.wrQLenPdf::58                      0                       # What write queue length does an incoming req see
system.mem_ctrls.wrQLenPdf::59                      0                       # What write queue length does an incoming req see
system.mem_ctrls.wrQLenPdf::60                      0                       # What write queue length does an incoming req see
system.mem_ctrls.wrQLenPdf::61                      0                       # What write queue length does an incoming req see
system.mem_ctrls.wrQLenPdf::62                      0                       # What write queue length does an incoming req see
system.mem_ctrls.wrQLenPdf::63                      0                       # What write queue length does an incoming req see
system.mem_ctrls.bytesPerActivate::samples         3918                       # Bytes accessed per row activation
system.mem_ctrls.bytesPerActivate::mean     93.043389                       # Bytes accessed per row activation
system.mem_ctrls.bytesPerActivate::gmean    73.701598                       # Bytes accessed per row activation
system.mem_ctrls.bytesPerActivate::stdev   125.396607                       # Bytes accessed per row activation
system.mem_ctrls.bytesPerActivate::0-127         3540     90.35%     90.35% # Bytes accessed per row activation
system.mem_ctrls.bytesPerActivate::128-255          175      4.47%     94.82% # Bytes accessed per row activation
system.mem_ctrls.bytesPerActivate::256-383           68      1.74%     96.55% # Bytes accessed per row activation
system.mem_ctrls.bytesPerActivate::384-511           34      0.87%     97.42% # Bytes accessed per row activation
system.mem_ctrls.bytesPerActivate::512-639           21      0.54%     97.96% # Bytes accessed per row activation
system.mem_ctrls.bytesPerActivate::640-767           21      0.54%     98.49% # Bytes accessed per row activation
system.mem_ctrls.bytesPerActivate::768-895           20      0.51%     99.00% # Bytes accessed per row activation
system.mem_ctrls.bytesPerActivate::896-1023           19      0.48%     99.49% # Bytes accessed per row activation
system.mem_ctrls.bytesPerActivate::1024-1151           20      0.51%    100.00% # Bytes accessed per row activation
system.mem_ctrls.bytesPerActivate::total         3918                       # Bytes accessed per row activation
system.mem_ctrls.rdPerTurnAround::samples          115                       # Reads before turning the bus around for writes
system.mem_ctrls.rdPerTurnAround::mean      31.478261                       # Reads before turning the bus around for writes
system.mem_ctrls.rdPerTurnAround::gmean     30.770979                       # Reads before turning the bus around for writes
system.mem_ctrls.rdPerTurnAround::stdev      6.334738                       # Reads before turning the bus around for writes
system.mem_ctrls.rdPerTurnAround::18-19             8      6.96%      6.96% # Reads before turning the bus around for writes
system.mem_ctrls.rdPerTurnAround::20-21             2      1.74%      8.70% # Reads before turning the bus around for writes
system.mem_ctrls.rdPerTurnAround::22-23             3      2.61%     11.30% # Reads before turning the bus around for writes
system.mem_ctrls.rdPerTurnAround::24-25            11      9.57%     20.87% # Reads before turning the bus around for writes
system.mem_ctrls.rdPerTurnAround::26-27             7      6.09%     26.96% # Reads before turning the bus around for writes
system.mem_ctrls.rdPerTurnAround::28-29             6      5.22%     32.17% # Reads before turning the bus around for writes
system.mem_ctrls.rdPerTurnAround::30-31            13     11.30%     43.48% # Reads before turning the bus around for writes
system.mem_ctrls.rdPerTurnAround::32-33            11      9.57%     53.04% # Reads before turning the bus around for writes
system.mem_ctrls.rdPerTurnAround::34-35            25     21.74%     74.78% # Reads before turning the bus around for writes
system.mem_ctrls.rdPerTurnAround::36-37            12     10.43%     85.22% # Reads before turning the bus around for writes
system.mem_ctrls.rdPerTurnAround::38-39             4      3.48%     88.70% # Reads before turning the bus around for writes
system.mem_ctrls.rdPerTurnAround::40-41            10      8.70%     97.39% # Reads before turning the bus around for writes
system.mem_ctrls.rdPerTurnAround::42-43             3      2.61%    100.00% # Reads before turning the bus around for writes
system.mem_ctrls.rdPerTurnAround::total           115                       # Reads before turning the bus around for writes
system.mem_ctrls.wrPerTurnAround::samples          115                       # Writes before turning the bus around for reads
system.mem_ctrls.wrPerTurnAround::mean      17.800000                       # Writes before turning the bus around for reads
system.mem_ctrls.wrPerTurnAround::gmean     17.789502                       # Writes before turning the bus around for reads
system.mem_ctrls.wrPerTurnAround::stdev      0.595303                       # Writes before turning the bus around for reads
system.mem_ctrls.wrPerTurnAround::16               11      9.57%      9.57% # Writes before turning the bus around for reads
system.mem_ctrls.wrPerTurnAround::17                1      0.87%     10.43% # Writes before turning the bus around for reads
system.mem_ctrls.wrPerTurnAround::18              103     89.57%    100.00% # Writes before turning the bus around for reads
system.mem_ctrls.wrPerTurnAround::total           115                       # Writes before turning the bus around for reads
system.mem_ctrls.totQLat                    370091500                       # Total ticks spent queuing
system.mem_ctrls.totMemAccLat               438266500                       # Total ticks spent from burst creation until serviced by the DRAM
system.mem_ctrls.totBusLat                   18180000                       # Total ticks spent in databus transfers
system.mem_ctrls.avgQLat                    101785.34                       # Average queueing delay per DRAM burst
system.mem_ctrls.avgBusLat                    5000.00                       # Average bus latency per DRAM burst
system.mem_ctrls.avgMemAccLat               120535.34                       # Average memory access latency per DRAM burst
system.mem_ctrls.avgRdBW                        15.24                       # Average DRAM read bandwidth in MiByte/s
system.mem_ctrls.avgWrBW                         8.58                       # Average achieved write bandwidth in MiByte/s
system.mem_ctrls.avgRdBWSys                     15.25                       # Average system read bandwidth in MiByte/s
system.mem_ctrls.avgWrBWSys                      8.64                       # Average system write bandwidth in MiByte/s
system.mem_ctrls.peakBW                      12800.00                       # Theoretical peak bandwidth in MiByte/s
system.mem_ctrls.busUtil                         0.19                       # Data bus utilization in percentage
system.mem_ctrls.busUtilRead                     0.12                       # Data bus utilization in percentage for reads
system.mem_ctrls.busUtilWrite                    0.07                       # Data bus utilization in percentage for writes
system.mem_ctrls.avgRdQLen                       1.00                       # Average read queue length when enqueuing
system.mem_ctrls.avgWrQLen                      24.46                       # Average write queue length when enqueuing
system.mem_ctrls.readRowHits                       72                       # Number of row buffer hits during reads
system.mem_ctrls.writeRowHits                    1696                       # Number of row buffer hits during writes
system.mem_ctrls.readRowHitRate                  1.98                       # Row buffer hit rate for reads
system.mem_ctrls.writeRowHitRate                82.25                       # Row buffer hit rate for writes
system.mem_ctrls.avgGap                    2677782.63                       # Average gap between requests
system.mem_ctrls.pageHitRate                    31.03                       # Row buffer hit rate, read and write combined
system.mem_ctrls_0.actEnergy                 13144740                       # Energy for activate commands per rank (pJ)
system.mem_ctrls_0.preEnergy                  6986595                       # Energy for precharge commands per rank (pJ)
system.mem_ctrls_0.readEnergy                12502140                       # Energy for read commands per rank (pJ)
system.mem_ctrls_0.writeEnergy                4379580                       # Energy for write commands per rank (pJ)
system.mem_ctrls_0.refreshEnergy         1090986000.000000                       # Energy for refresh commands per rank (pJ)
system.mem_ctrls_0.actBackEnergy            318553620                       # Energy for active background per rank (pJ)
system.mem_ctrls_0.preBackEnergy             39463680                       # Energy for precharge background per rank (pJ)
system.mem_ctrls_0.actPowerDownEnergy      2817777900                       # Energy for active power-down per rank (pJ)
system.mem_ctrls_0.prePowerDownEnergy      2086201440                       # Energy for precharge power-down per rank (pJ)
system.mem_ctrls_0.selfRefreshEnergy        792055560                       # Energy for self refresh per rank (pJ)
system.mem_ctrls_0.totalEnergy             7183072875                       # Total energy per rank (pJ)
system.mem_ctrls_0.averagePower            470.486079                       # Core power per rank (mW)
system.mem_ctrls_0.totalIdleTime          14460114125                       # Total Idle time Per DRAM Rank
system.mem_ctrls_0.memoryStateTime::IDLE     59484000                       # Time in different power states
system.mem_ctrls_0.memoryStateTime::REF     462832000                       # Time in different power states
system.mem_ctrls_0.memoryStateTime::SREF   2851553750                       # Time in different power states
system.mem_ctrls_0.memoryStateTime::PRE_PDN   5432724875                       # Time in different power states
system.mem_ctrls_0.memoryStateTime::ACT     281357000                       # Time in different power states
system.mem_ctrls_0.memoryStateTime::ACT_PDN   6179392500                       # Time in different power states
system.mem_ctrls_1.actEnergy                 14808360                       # Energy for activate commands per rank (pJ)
system.mem_ctrls_1.preEnergy                  7882215                       # Energy for precharge commands per rank (pJ)
system.mem_ctrls_1.readEnergy                13458900                       # Energy for read commands per rank (pJ)
system.mem_ctrls_1.writeEnergy                6305760                       # Energy for write commands per rank (pJ)
system.mem_ctrls_1.refreshEnergy         1295046480.000000                       # Energy for refresh commands per rank (pJ)
system.mem_ctrls_1.actBackEnergy            393670500                       # Energy for active background per rank (pJ)
system.mem_ctrls_1.preBackEnergy             60321600                       # Energy for precharge background per rank (pJ)
system.mem_ctrls_1.actPowerDownEnergy      2895275100                       # Energy for active power-down per rank (pJ)
system.mem_ctrls_1.prePowerDownEnergy      2446511040                       # Energy for precharge power-down per rank (pJ)
system.mem_ctrls_1.selfRefreshEnergy        569040180                       # Energy for self refresh per rank (pJ)
system.mem_ctrls_1.totalEnergy             7703562705                       # Total energy per rank (pJ)
system.mem_ctrls_1.averagePower            504.577787                       # Core power per rank (mW)
system.mem_ctrls_1.totalIdleTime          14239816875                       # Total Idle time Per DRAM Rank
system.mem_ctrls_1.memoryStateTime::IDLE    109441000                       # Time in different power states
system.mem_ctrls_1.memoryStateTime::REF     550130000                       # Time in different power states
system.mem_ctrls_1.memoryStateTime::SREF   1523767000                       # Time in different power states
system.mem_ctrls_1.memoryStateTime::PRE_PDN   6371143500                       # Time in different power states
system.mem_ctrls_1.memoryStateTime::ACT     363454250                       # Time in different power states
system.mem_ctrls_1.memoryStateTime::ACT_PDN   6349408375                       # Time in different power states
system.pwrStateResidencyTicks::UNDEFINED  15267344125                       # Cumulative time (in ticks) in various power states
system.cpu0.branchPred.lookups               12790093                       # Number of BP lookups
system.cpu0.branchPred.condPredicted         12790093                       # Number of conditional branches predicted
system.cpu0.branchPred.condIncorrect          1072005                       # Number of conditional branches incorrect
system.cpu0.branchPred.BTBLookups            10603606                       # Number of BTB lookups
system.cpu0.branchPred.BTBHits                      0                       # Number of BTB hits
system.cpu0.branchPred.BTBCorrect                   0                       # Number of correct BTB predictions (this stat may not work properly.
system.cpu0.branchPred.BTBHitPct             0.000000                       # BTB Hit Percentage
system.cpu0.branchPred.usedRAS                 963028                       # Number of times the RAS was used to get a target.
system.cpu0.branchPred.RASInCorrect            204161                       # Number of incorrect RAS predictions.
system.cpu0.branchPred.indirectLookups       10603606                       # Number of indirect predictor lookups.
system.cpu0.branchPred.indirectHits           3449991                       # Number of indirect target hits.
system.cpu0.branchPred.indirectMisses         7153615                       # Number of indirect misses.
system.cpu0.branchPredindirectMispredicted       767282                       # Number of mispredicted indirect branches.
system.cpu_voltage_domain.voltage                   1                       # Voltage in Volts
system.cpu_clk_domain.clock                       500                       # Clock period in ticks
system.cpu0.dtb.walker.pwrStateResidencyTicks::UNDEFINED  15267344125                       # Cumulative time (in ticks) in various power states
system.cpu0.dtb.rdAccesses                    9652520                       # TLB accesses on read requests
system.cpu0.dtb.wrAccesses                    7223790                       # TLB accesses on write requests
system.cpu0.dtb.rdMisses                       132791                       # TLB misses on read requests
system.cpu0.dtb.wrMisses                        48003                       # TLB misses on write requests
system.cpu0.apic_clk_domain.clock                8000                       # Clock period in ticks
system.cpu0.interrupts.pwrStateResidencyTicks::UNDEFINED  15267344125                       # Cumulative time (in ticks) in various power states
system.cpu0.itb.walker.pwrStateResidencyTicks::UNDEFINED  15267344125                       # Cumulative time (in ticks) in various power states
system.cpu0.itb.rdAccesses                          0                       # TLB accesses on read requests
system.cpu0.itb.wrAccesses                    8679780                       # TLB accesses on write requests
system.cpu0.itb.rdMisses                            0                       # TLB misses on read requests
system.cpu0.itb.wrMisses                        13847                       # TLB misses on write requests
system.cpu0.workload.numSyscalls                   23                       # Number of system calls
system.cpu0.pwrStateResidencyTicks::ON    15267344125                       # Cumulative time (in ticks) in various power states
system.cpu0.numCycles                        30534688                       # number of cpu cycles simulated
system.cpu0.numWorkItemsStarted                     0                       # number of work items this cpu started
system.cpu0.numWorkItemsCompleted                   0                       # number of work items this cpu completed
system.cpu0.fetch.icacheStallCycles          10301390                       # Number of cycles fetch is stalled on an Icache miss
system.cpu0.fetch.Insts                      57477872                       # Number of instructions fetch has processed
system.cpu0.fetch.Branches                   12790093                       # Number of branches that fetch encountered
system.cpu0.fetch.predictedBranches           4413019                       # Number of branches that fetch has predicted taken
system.cpu0.fetch.Cycles                     19038843                       # Number of cycles fetch has run and was not squashing or blocked
system.cpu0.fetch.SquashCycles                2159764                       # Number of cycles fetch has spent squashing
system.cpu0.fetch.TlbCycles                         5                       # Number of cycles fetch has spent waiting for tlb
system.cpu0.fetch.MiscStallCycles                7750                       # Number of cycles fetch has spent waiting on interrupts, or bad addresses, or out of MSHRs
system.cpu0.fetch.PendingTrapStallCycles        61112                       # Number of stall cycles due to pending traps
system.cpu0.fetch.CacheLines                  8665933                       # Number of cache lines fetched
system.cpu0.fetch.IcacheSquashes               287473                       # Number of outstanding Icache misses that were squashed
system.cpu0.fetch.rateDist::samples          30488982                       # Number of instructions fetched each cycle (Total)
system.cpu0.fetch.rateDist::mean             3.614853                       # Number of instructions fetched each cycle (Total)
system.cpu0.fetch.rateDist::stdev            3.583258                       # Number of instructions fetched each cycle (Total)
system.cpu0.fetch.rateDist::underflows              0      0.00%      0.00% # Number of instructions fetched each cycle (Total)
system.cpu0.fetch.rateDist::0                12938409     42.44%     42.44% # Number of instructions fetched each cycle (Total)
system.cpu0.fetch.rateDist::1                  825101      2.71%     45.14% # Number of instructions fetched each cycle (Total)
system.cpu0.fetch.rateDist::2                 1214348      3.98%     49.13% # Number of instructions fetched each cycle (Total)
system.cpu0.fetch.rateDist::3                 1350489      4.43%     53.55% # Number of instructions fetched each cycle (Total)
system.cpu0.fetch.rateDist::4                 1084963      3.56%     57.11% # Number of instructions fetched each cycle (Total)
system.cpu0.fetch.rateDist::5                 1070841      3.51%     60.63% # Number of instructions fetched each cycle (Total)
system.cpu0.fetch.rateDist::6                  985127      3.23%     63.86% # Number of instructions fetched each cycle (Total)
system.cpu0.fetch.rateDist::7                  854532      2.80%     66.66% # Number of instructions fetched each cycle (Total)
system.cpu0.fetch.rateDist::8                10165172     33.34%    100.00% # Number of instructions fetched each cycle (Total)
system.cpu0.fetch.rateDist::overflows               0      0.00%    100.00% # Number of instructions fetched each cycle (Total)
system.cpu0.fetch.rateDist::min_value               0                       # Number of instructions fetched each cycle (Total)
system.cpu0.fetch.rateDist::max_value               8                       # Number of instructions fetched each cycle (Total)
system.cpu0.fetch.rateDist::total            30488982                       # Number of instructions fetched each cycle (Total)
system.cpu0.fetch.branchRate                 0.418871                       # Number of branch fetches per cycle
system.cpu0.fetch.rate                       1.882380                       # Number of inst fetches per cycle
system.cpu0.decode.IdleCycles                 9173380                       # Number of cycles decode is idle
system.cpu0.decode.BlockedCycles              4190528                       # Number of cycles decode is blocked
system.cpu0.decode.RunCycles                 15134478                       # Number of cycles decode is running
system.cpu0.decode.UnblockCycles               910714                       # Number of cycles decode is unblocking
system.cpu0.decode.SquashCycles               1079882                       # Number of cycles decode is squashing
system.cpu0.decode.DecodedInsts             104988010                       # Number of instructions handled by decode
system.cpu0.rename.SquashCycles               1079882                       # Number of cycles rename is squashing
system.cpu0.rename.IdleCycles                 9910223                       # Number of cycles rename is idle
system.cpu0.rename.BlockCycles                3173739                       # Number of cycles rename is blocking
system.cpu0.rename.serializeStallCycles         10445                       # count of cycles rename stalled for serializing inst
system.cpu0.rename.RunCycles                 15244609                       # Number of cycles rename is running
system.cpu0.rename.UnblockCycles              1070084                       # Number of cycles rename is unblocking
system.cpu0.rename.RenamedInsts             100137635                       # Number of instructions processed by rename
system.cpu0.rename.ROBFullEvents                  673                       # Number of times rename has blocked due to ROB full
system.cpu0.rename.IQFullEvents                 56735                       # Number of times rename has blocked due to IQ full
system.cpu0.rename.LQFullEvents                    65                       # Number of times rename has blocked due to LQ full
system.cpu0.rename.SQFullEvents                961843                       # Number of times rename has blocked due to SQ full
system.cpu0.rename.RenamedOperands          106499920                       # Number of destination operands rename has renamed
system.cpu0.rename.RenameLookups            251867479                       # Number of register rename lookups that rename has made
system.cpu0.rename.int_rename_lookups       150350388                       # Number of integer rename lookups
system.cpu0.rename.fp_rename_lookups          3039270                       # Number of floating rename lookups
system.cpu0.rename.CommittedMaps             65933017                       # Number of HB maps that are committed
system.cpu0.rename.UndoneMaps                40566771                       # Number of HB maps that are undone due to squashing
system.cpu0.rename.serializingInsts               528                       # count of serializing insts renamed
system.cpu0.rename.tempSerializingInsts           676                       # count of temporary serializing insts renamed
system.cpu0.rename.skidInsts                   844689                       # count of insts added to the skid buffer
system.cpu0.memDep0.insertedLoads            11527160                       # Number of loads inserted to the mem dependence unit.
system.cpu0.memDep0.insertedStores            8567469                       # Number of stores inserted to the mem dependence unit.
system.cpu0.memDep0.conflictingLoads           484503                       # Number of conflicting loads.
system.cpu0.memDep0.conflictingStores          199245                       # Number of conflicting stores.
system.cpu0.iq.iqInstsAdded                  90093626                       # Number of instructions added to the IQ (excludes non-spec)
system.cpu0.iq.iqNonSpecInstsAdded              76013                       # Number of non-speculative instructions added to the IQ
system.cpu0.iq.iqInstsIssued                 80346465                       # Number of instructions issued
system.cpu0.iq.iqSquashedInstsIssued           420387                       # Number of squashed instructions issued
system.cpu0.iq.iqSquashedInstsExamined       28444152                       # Number of squashed instructions iterated over during squash; mainly for profiling
system.cpu0.iq.iqSquashedOperandsExamined     41058122                       # Number of squashed operands that are examined and possibly removed from graph
system.cpu0.iq.iqSquashedNonSpecRemoved         75990                       # Number of squashed non-spec instructions that were removed
system.cpu0.iq.issued_per_cycle::samples     30488982                       # Number of insts issued each cycle
system.cpu0.iq.issued_per_cycle::mean        2.635262                       # Number of insts issued each cycle
system.cpu0.iq.issued_per_cycle::stdev       2.519071                       # Number of insts issued each cycle
system.cpu0.iq.issued_per_cycle::underflows            0      0.00%      0.00% # Number of insts issued each cycle
system.cpu0.iq.issued_per_cycle::0           10322174     33.86%     33.86% # Number of insts issued each cycle
system.cpu0.iq.issued_per_cycle::1            2833741      9.29%     43.15% # Number of insts issued each cycle
system.cpu0.iq.issued_per_cycle::2            3031306      9.94%     53.09% # Number of insts issued each cycle
system.cpu0.iq.issued_per_cycle::3            3060031     10.04%     63.13% # Number of insts issued each cycle
system.cpu0.iq.issued_per_cycle::4            3005308      9.86%     72.99% # Number of insts issued each cycle
system.cpu0.iq.issued_per_cycle::5            2688749      8.82%     81.80% # Number of insts issued each cycle
system.cpu0.iq.issued_per_cycle::6            2999871      9.84%     91.64% # Number of insts issued each cycle
system.cpu0.iq.issued_per_cycle::7            1576600      5.17%     96.81% # Number of insts issued each cycle
system.cpu0.iq.issued_per_cycle::8             971202      3.19%    100.00% # Number of insts issued each cycle
system.cpu0.iq.issued_per_cycle::overflows            0      0.00%    100.00% # Number of insts issued each cycle
system.cpu0.iq.issued_per_cycle::min_value            0                       # Number of insts issued each cycle
system.cpu0.iq.issued_per_cycle::max_value            8                       # Number of insts issued each cycle
system.cpu0.iq.issued_per_cycle::total       30488982                       # Number of insts issued each cycle
system.cpu0.iq.fu_full::No_OpClass                  0      0.00%      0.00% # attempts to use FU when none available
system.cpu0.iq.fu_full::IntAlu                 764190     73.47%     73.47% # attempts to use FU when none available
system.cpu0.iq.fu_full::IntMult                     0      0.00%     73.47% # attempts to use FU when none available
system.cpu0.iq.fu_full::IntDiv                      0      0.00%     73.47% # attempts to use FU when none available
system.cpu0.iq.fu_full::FloatAdd                14161      1.36%     74.83% # attempts to use FU when none available
system.cpu0.iq.fu_full::FloatCmp                    0      0.00%     74.83% # attempts to use FU when none available
system.cpu0.iq.fu_full::FloatCvt                    0      0.00%     74.83% # attempts to use FU when none available
system.cpu0.iq.fu_full::FloatMult                   0      0.00%     74.83% # attempts to use FU when none available
system.cpu0.iq.fu_full::FloatMultAcc                0      0.00%     74.83% # attempts to use FU when none available
system.cpu0.iq.fu_full::FloatDiv                    0      0.00%     74.83% # attempts to use FU when none available
system.cpu0.iq.fu_full::FloatMisc                   0      0.00%     74.83% # attempts to use FU when none available
system.cpu0.iq.fu_full::FloatSqrt                   0      0.00%     74.83% # attempts to use FU when none available
system.cpu0.iq.fu_full::SimdAdd                     0      0.00%     74.83% # attempts to use FU when none available
system.cpu0.iq.fu_full::SimdAddAcc                  0      0.00%     74.83% # attempts to use FU when none available
system.cpu0.iq.fu_full::SimdAlu                     0      0.00%     74.83% # attempts to use FU when none available
system.cpu0.iq.fu_full::SimdCmp                     0      0.00%     74.83% # attempts to use FU when none available
system.cpu0.iq.fu_full::SimdCvt                     0      0.00%     74.83% # attempts to use FU when none available
system.cpu0.iq.fu_full::SimdMisc                    0      0.00%     74.83% # attempts to use FU when none available
system.cpu0.iq.fu_full::SimdMult                    0      0.00%     74.83% # attempts to use FU when none available
system.cpu0.iq.fu_full::SimdMultAcc                 0      0.00%     74.83% # attempts to use FU when none available
system.cpu0.iq.fu_full::SimdShift                   0      0.00%     74.83% # attempts to use FU when none available
system.cpu0.iq.fu_full::SimdShiftAcc                0      0.00%     74.83% # attempts to use FU when none available
system.cpu0.iq.fu_full::SimdSqrt                    0      0.00%     74.83% # attempts to use FU when none available
system.cpu0.iq.fu_full::SimdFloatAdd                0      0.00%     74.83% # attempts to use FU when none available
system.cpu0.iq.fu_full::SimdFloatAlu                0      0.00%     74.83% # attempts to use FU when none available
system.cpu0.iq.fu_full::SimdFloatCmp                0      0.00%     74.83% # attempts to use FU when none available
system.cpu0.iq.fu_full::SimdFloatCvt                0      0.00%     74.83% # attempts to use FU when none available
system.cpu0.iq.fu_full::SimdFloatDiv                0      0.00%     74.83% # attempts to use FU when none available
system.cpu0.iq.fu_full::SimdFloatMisc               0      0.00%     74.83% # attempts to use FU when none available
system.cpu0.iq.fu_full::SimdFloatMult               0      0.00%     74.83% # attempts to use FU when none available
system.cpu0.iq.fu_full::SimdFloatMultAcc            0      0.00%     74.83% # attempts to use FU when none available
system.cpu0.iq.fu_full::SimdFloatSqrt               0      0.00%     74.83% # attempts to use FU when none available
system.cpu0.iq.fu_full::MemRead                 96573      9.28%     84.12% # attempts to use FU when none available
system.cpu0.iq.fu_full::MemWrite                83446      8.02%     92.14% # attempts to use FU when none available
system.cpu0.iq.fu_full::FloatMemRead              665      0.06%     92.20% # attempts to use FU when none available
system.cpu0.iq.fu_full::FloatMemWrite           81117      7.80%    100.00% # attempts to use FU when none available
system.cpu0.iq.fu_full::IprAccess                   0      0.00%    100.00% # attempts to use FU when none available
system.cpu0.iq.fu_full::InstPrefetch                0      0.00%    100.00% # attempts to use FU when none available
system.cpu0.iq.FU_type_0::No_OpClass           487499      0.61%      0.61% # Type of FU issued
system.cpu0.iq.FU_type_0::IntAlu             60855900     75.74%     76.35% # Type of FU issued
system.cpu0.iq.FU_type_0::IntMult               72145      0.09%     76.44% # Type of FU issued
system.cpu0.iq.FU_type_0::IntDiv                82974      0.10%     76.54% # Type of FU issued
system.cpu0.iq.FU_type_0::FloatAdd            1128406      1.40%     77.95% # Type of FU issued
system.cpu0.iq.FU_type_0::FloatCmp                  0      0.00%     77.95% # Type of FU issued
system.cpu0.iq.FU_type_0::FloatCvt                  0      0.00%     77.95% # Type of FU issued
system.cpu0.iq.FU_type_0::FloatMult                 0      0.00%     77.95% # Type of FU issued
system.cpu0.iq.FU_type_0::FloatMultAcc              0      0.00%     77.95% # Type of FU issued
system.cpu0.iq.FU_type_0::FloatDiv                  0      0.00%     77.95% # Type of FU issued
system.cpu0.iq.FU_type_0::FloatMisc                 0      0.00%     77.95% # Type of FU issued
system.cpu0.iq.FU_type_0::FloatSqrt                 0      0.00%     77.95% # Type of FU issued
system.cpu0.iq.FU_type_0::SimdAdd                   0      0.00%     77.95% # Type of FU issued
system.cpu0.iq.FU_type_0::SimdAddAcc                0      0.00%     77.95% # Type of FU issued
system.cpu0.iq.FU_type_0::SimdAlu                   0      0.00%     77.95% # Type of FU issued
system.cpu0.iq.FU_type_0::SimdCmp                   0      0.00%     77.95% # Type of FU issued
system.cpu0.iq.FU_type_0::SimdCvt                   0      0.00%     77.95% # Type of FU issued
system.cpu0.iq.FU_type_0::SimdMisc                  0      0.00%     77.95% # Type of FU issued
system.cpu0.iq.FU_type_0::SimdMult                  0      0.00%     77.95% # Type of FU issued
system.cpu0.iq.FU_type_0::SimdMultAcc               0      0.00%     77.95% # Type of FU issued
system.cpu0.iq.FU_type_0::SimdShift                 0      0.00%     77.95% # Type of FU issued
system.cpu0.iq.FU_type_0::SimdShiftAcc              0      0.00%     77.95% # Type of FU issued
system.cpu0.iq.FU_type_0::SimdSqrt                  0      0.00%     77.95% # Type of FU issued
system.cpu0.iq.FU_type_0::SimdFloatAdd              0      0.00%     77.95% # Type of FU issued
system.cpu0.iq.FU_type_0::SimdFloatAlu              0      0.00%     77.95% # Type of FU issued
system.cpu0.iq.FU_type_0::SimdFloatCmp              0      0.00%     77.95% # Type of FU issued
system.cpu0.iq.FU_type_0::SimdFloatCvt              0      0.00%     77.95% # Type of FU issued
system.cpu0.iq.FU_type_0::SimdFloatDiv              0      0.00%     77.95% # Type of FU issued
system.cpu0.iq.FU_type_0::SimdFloatMisc             0      0.00%     77.95% # Type of FU issued
system.cpu0.iq.FU_type_0::SimdFloatMult             0      0.00%     77.95% # Type of FU issued
system.cpu0.iq.FU_type_0::SimdFloatMultAcc            0      0.00%     77.95% # Type of FU issued
system.cpu0.iq.FU_type_0::SimdFloatSqrt             0      0.00%     77.95% # Type of FU issued
system.cpu0.iq.FU_type_0::MemRead             9797089     12.19%     90.14% # Type of FU issued
system.cpu0.iq.FU_type_0::MemWrite            7281413      9.06%     99.20% # Type of FU issued
system.cpu0.iq.FU_type_0::FloatMemRead         382788      0.48%     99.68% # Type of FU issued
system.cpu0.iq.FU_type_0::FloatMemWrite        258251      0.32%    100.00% # Type of FU issued
system.cpu0.iq.FU_type_0::IprAccess                 0      0.00%    100.00% # Type of FU issued
system.cpu0.iq.FU_type_0::InstPrefetch              0      0.00%    100.00% # Type of FU issued
system.cpu0.iq.FU_type_0::total              80346465                       # Type of FU issued
system.cpu0.iq.rate                          2.631318                       # Inst issue rate
system.cpu0.iq.fu_busy_cnt                    1040152                       # FU busy when requested
system.cpu0.iq.fu_busy_rate                  0.012946                       # FU busy rate (busy events/executed inst)
system.cpu0.iq.int_inst_queue_reads         188859765                       # Number of integer instruction queue reads
system.cpu0.iq.int_inst_queue_writes        115638259                       # Number of integer instruction queue writes
system.cpu0.iq.int_inst_queue_wakeup_accesses     74984810                       # Number of integer instruction queue wakeup accesses
system.cpu0.iq.fp_inst_queue_reads            3782685                       # Number of floating instruction queue reads
system.cpu0.iq.fp_inst_queue_writes           2976550                       # Number of floating instruction queue writes
system.cpu0.iq.fp_inst_queue_wakeup_accesses      1716224                       # Number of floating instruction queue wakeup accesses
system.cpu0.iq.vec_inst_queue_reads                 0                       # Number of vector instruction queue reads
system.cpu0.iq.vec_inst_queue_writes                0                       # Number of vector instruction queue writes
system.cpu0.iq.vec_inst_queue_wakeup_accesses            0                       # Number of vector instruction queue wakeup accesses
system.cpu0.iq.int_alu_accesses              78991793                       # Number of integer alu accesses
system.cpu0.iq.fp_alu_accesses                1907325                       # Number of floating point alu accesses
system.cpu0.iq.vec_alu_accesses                     0                       # Number of vector alu accesses
system.cpu0.iew.lsq.thread0.forwLoads         1163108                       # Number of loads that had data forwarded from stores
system.cpu0.iew.lsq.thread0.invAddrLoads            0                       # Number of loads ignored due to an invalid address
system.cpu0.iew.lsq.thread0.squashedLoads      4147164                       # Number of loads squashed
system.cpu0.iew.lsq.thread0.ignoredResponses        10037                       # Number of memory responses ignored because the instruction is squashed
system.cpu0.iew.lsq.thread0.memOrderViolation         2272                       # Number of memory ordering violations
system.cpu0.iew.lsq.thread0.squashedStores      2499834                       # Number of stores squashed
system.cpu0.iew.lsq.thread0.invAddrSwpfs            0                       # Number of software prefetches ignored due to an invalid address
system.cpu0.iew.lsq.thread0.blockedLoads            0                       # Number of blocked loads due to partial load-store forwarding
system.cpu0.iew.lsq.thread0.rescheduledLoads          125                       # Number of loads that were rescheduled
system.cpu0.iew.lsq.thread0.cacheBlocked            0                       # Number of times an access to memory failed due to the cache being blocked
system.cpu0.iew.iewIdleCycles                       0                       # Number of cycles IEW is idle
system.cpu0.iew.iewSquashCycles               1079882                       # Number of cycles IEW is squashing
system.cpu0.iew.iewBlockCycles                3232298                       # Number of cycles IEW is blocking
system.cpu0.iew.iewUnblockCycles                 3367                       # Number of cycles IEW is unblocking
system.cpu0.iew.iewDispatchedInsts           90169639                       # Number of instructions dispatched to IQ
system.cpu0.iew.iewDispSquashedInsts            27526                       # Number of squashed instructions skipped by dispatch
system.cpu0.iew.iewDispLoadInsts             11527160                       # Number of dispatched load instructions
system.cpu0.iew.iewDispStoreInsts             8567469                       # Number of dispatched store instructions
system.cpu0.iew.iewDispNonSpecInsts             26263                       # Number of dispatched non-speculative instructions
system.cpu0.iew.iewIQFullEvents                   584                       # Number of times the IQ has become full, causing a stall
system.cpu0.iew.iewLSQFullEvents                 2235                       # Number of times the LSQ has become full, causing a stall
system.cpu0.iew.memOrderViolationEvents          2272                       # Number of memory order violations
system.cpu0.iew.predictedTakenIncorrect        295728                       # Number of branches that were predicted taken incorrectly
system.cpu0.iew.predictedNotTakenIncorrect      1120803                       # Number of branches that were predicted not taken incorrectly
system.cpu0.iew.branchMispredicts             1416531                       # Number of branch mispredicts detected at execute
system.cpu0.iew.iewExecutedInsts             77841619                       # Number of executed instructions
system.cpu0.iew.iewExecLoadInsts              9645866                       # Number of load instructions executed
system.cpu0.iew.iewExecSquashedInsts          2504845                       # Number of squashed instructions skipped in execute
system.cpu0.iew.exec_swp                            0                       # number of swp insts executed
system.cpu0.iew.exec_nop                            0                       # number of nop insts executed
system.cpu0.iew.exec_refs                    16862742                       # number of memory reference insts executed
system.cpu0.iew.exec_branches                 8417119                       # Number of branches executed
system.cpu0.iew.exec_stores                   7216876                       # Number of stores executed
system.cpu0.iew.exec_rate                    2.549285                       # Inst execution rate
system.cpu0.iew.wb_sent                      77293325                       # cumulative count of insts sent to commit
system.cpu0.iew.wb_count                     76701034                       # cumulative count of insts written-back
system.cpu0.iew.wb_producers                 53574161                       # num instructions producing a value
system.cpu0.iew.wb_consumers                 83677727                       # num instructions consuming a value
system.cpu0.iew.wb_rate                      2.511931                       # insts written-back per cycle
system.cpu0.iew.wb_fanout                    0.640244                       # average fanout of values written-back
system.cpu0.commit.commitSquashedInsts       28444801                       # The number of squashed insts skipped by commit
system.cpu0.commit.commitNonSpecStalls             23                       # The number of times commit has been forced to stall to communicate backwards
system.cpu0.commit.branchMispredicts          1079209                       # The number of times a branch was mispredicted
system.cpu0.commit.committed_per_cycle::samples     26189023                       # Number of insts commited each cycle
system.cpu0.commit.committed_per_cycle::mean     2.356918                       # Number of insts commited each cycle
system.cpu0.commit.committed_per_cycle::stdev     2.711772                       # Number of insts commited each cycle
system.cpu0.commit.committed_per_cycle::underflows            0      0.00%      0.00% # Number of insts commited each cycle
system.cpu0.commit.committed_per_cycle::0      9906253     37.83%     37.83% # Number of insts commited each cycle
system.cpu0.commit.committed_per_cycle::1      3713623     14.18%     52.01% # Number of insts commited each cycle
system.cpu0.commit.committed_per_cycle::2      2565746      9.80%     61.80% # Number of insts commited each cycle
system.cpu0.commit.committed_per_cycle::3      3482472     13.30%     75.10% # Number of insts commited each cycle
system.cpu0.commit.committed_per_cycle::4      1111186      4.24%     79.34% # Number of insts commited each cycle
system.cpu0.commit.committed_per_cycle::5      1086839      4.15%     83.49% # Number of insts commited each cycle
system.cpu0.commit.committed_per_cycle::6       786629      3.00%     86.50% # Number of insts commited each cycle
system.cpu0.commit.committed_per_cycle::7       456072      1.74%     88.24% # Number of insts commited each cycle
system.cpu0.commit.committed_per_cycle::8      3080203     11.76%    100.00% # Number of insts commited each cycle
system.cpu0.commit.committed_per_cycle::overflows            0      0.00%    100.00% # Number of insts commited each cycle
system.cpu0.commit.committed_per_cycle::min_value            0                       # Number of insts commited each cycle
system.cpu0.commit.committed_per_cycle::max_value            8                       # Number of insts commited each cycle
system.cpu0.commit.committed_per_cycle::total     26189023                       # Number of insts commited each cycle
system.cpu0.commit.committedInsts            32585339                       # Number of instructions committed
system.cpu0.commit.committedOps              61725372                       # Number of ops (including micro ops) committed
system.cpu0.commit.swp_count                        0                       # Number of s/w prefetches committed
system.cpu0.commit.refs                      13447615                       # Number of memory references committed
system.cpu0.commit.loads                      7379980                       # Number of loads committed
system.cpu0.commit.membars                          0                       # Number of memory barriers committed
system.cpu0.commit.branches                   7173005                       # Number of branches committed
system.cpu0.commit.vec_insts                        0                       # Number of committed Vector instructions.
system.cpu0.commit.fp_insts                   1260255                       # Number of committed floating point instructions.
system.cpu0.commit.int_insts                 60778679                       # Number of committed integer instructions.
system.cpu0.commit.function_calls              447741                       # Number of function calls committed.
system.cpu0.commit.op_class_0::No_OpClass       250996      0.41%      0.41% # Class of committed instruction
system.cpu0.commit.op_class_0::IntAlu        46948857     76.06%     76.47% # Class of committed instruction
system.cpu0.commit.op_class_0::IntMult          52563      0.09%     76.55% # Class of committed instruction
system.cpu0.commit.op_class_0::IntDiv           73353      0.12%     76.67% # Class of committed instruction
system.cpu0.commit.op_class_0::FloatAdd        951988      1.54%     78.21% # Class of committed instruction
system.cpu0.commit.op_class_0::FloatCmp             0      0.00%     78.21% # Class of committed instruction
system.cpu0.commit.op_class_0::FloatCvt             0      0.00%     78.21% # Class of committed instruction
system.cpu0.commit.op_class_0::FloatMult            0      0.00%     78.21% # Class of committed instruction
system.cpu0.commit.op_class_0::FloatMultAcc            0      0.00%     78.21% # Class of committed instruction
system.cpu0.commit.op_class_0::FloatDiv             0      0.00%     78.21% # Class of committed instruction
system.cpu0.commit.op_class_0::FloatMisc            0      0.00%     78.21% # Class of committed instruction
system.cpu0.commit.op_class_0::FloatSqrt            0      0.00%     78.21% # Class of committed instruction
system.cpu0.commit.op_class_0::SimdAdd              0      0.00%     78.21% # Class of committed instruction
system.cpu0.commit.op_class_0::SimdAddAcc            0      0.00%     78.21% # Class of committed instruction
system.cpu0.commit.op_class_0::SimdAlu              0      0.00%     78.21% # Class of committed instruction
system.cpu0.commit.op_class_0::SimdCmp              0      0.00%     78.21% # Class of committed instruction
system.cpu0.commit.op_class_0::SimdCvt              0      0.00%     78.21% # Class of committed instruction
system.cpu0.commit.op_class_0::SimdMisc             0      0.00%     78.21% # Class of committed instruction
system.cpu0.commit.op_class_0::SimdMult             0      0.00%     78.21% # Class of committed instruction
system.cpu0.commit.op_class_0::SimdMultAcc            0      0.00%     78.21% # Class of committed instruction
system.cpu0.commit.op_class_0::SimdShift            0      0.00%     78.21% # Class of committed instruction
system.cpu0.commit.op_class_0::SimdShiftAcc            0      0.00%     78.21% # Class of committed instruction
system.cpu0.commit.op_class_0::SimdSqrt             0      0.00%     78.21% # Class of committed instruction
system.cpu0.commit.op_class_0::SimdFloatAdd            0      0.00%     78.21% # Class of committed instruction
system.cpu0.commit.op_class_0::SimdFloatAlu            0      0.00%     78.21% # Class of committed instruction
system.cpu0.commit.op_class_0::SimdFloatCmp            0      0.00%     78.21% # Class of committed instruction
system.cpu0.commit.op_class_0::SimdFloatCvt            0      0.00%     78.21% # Class of committed instruction
system.cpu0.commit.op_class_0::SimdFloatDiv            0      0.00%     78.21% # Class of committed instruction
system.cpu0.commit.op_class_0::SimdFloatMisc            0      0.00%     78.21% # Class of committed instruction
system.cpu0.commit.op_class_0::SimdFloatMult            0      0.00%     78.21% # Class of committed instruction
system.cpu0.commit.op_class_0::SimdFloatMultAcc            0      0.00%     78.21% # Class of committed instruction
system.cpu0.commit.op_class_0::SimdFloatSqrt            0      0.00%     78.21% # Class of committed instruction
system.cpu0.commit.op_class_0::MemRead        7113650     11.52%     89.74% # Class of committed instruction
system.cpu0.commit.op_class_0::MemWrite       6067635      9.83%     99.57% # Class of committed instruction
system.cpu0.commit.op_class_0::FloatMemRead       266330      0.43%    100.00% # Class of committed instruction
system.cpu0.commit.op_class_0::FloatMemWrite            0      0.00%    100.00% # Class of committed instruction
system.cpu0.commit.op_class_0::IprAccess            0      0.00%    100.00% # Class of committed instruction
system.cpu0.commit.op_class_0::InstPrefetch            0      0.00%    100.00% # Class of committed instruction
system.cpu0.commit.op_class_0::total         61725372                       # Class of committed instruction
system.cpu0.commit.bw_lim_events              3080203                       # number cycles where commit BW limit reached
system.cpu0.rob.rob_reads                   113278993                       # The number of ROB reads
system.cpu0.rob.rob_writes                  184725626                       # The number of ROB writes
system.cpu0.timesIdled                          13622                       # Number of times that the entire CPU went into an idle state and unscheduled itself
system.cpu0.idleCycles                          45706                       # Total number of cycles that the CPU has spent unscheduled due to idling
system.cpu0.committedInsts                   32585339                       # Number of Instructions Simulated
system.cpu0.committedOps                     61725372                       # Number of Ops (including micro ops) Simulated
system.cpu0.cpi                              0.937068                       # CPI: Cycles Per Instruction
system.cpu0.cpi_total                        0.937068                       # CPI: Total CPI of All Threads
system.cpu0.ipc                              1.067158                       # IPC: Instructions Per Cycle
system.cpu0.ipc_total                        1.067158                       # IPC: Total IPC of All Threads
system.cpu0.int_regfile_reads               112473401                       # number of integer regfile reads
system.cpu0.int_regfile_writes               60130471                       # number of integer regfile writes
system.cpu0.fp_regfile_reads                  2423557                       # number of floating regfile reads
system.cpu0.fp_regfile_writes                 1200276                       # number of floating regfile writes
system.cpu0.cc_regfile_reads                 39053231                       # number of cc regfile reads
system.cpu0.cc_regfile_writes                20501871                       # number of cc regfile writes
system.cpu0.misc_regfile_reads               34218208                       # number of misc regfile reads
system.cpu0.dcache.tags.pwrStateResidencyTicks::UNDEFINED  15267344125                       # Cumulative time (in ticks) in various power states
system.cpu0.dcache.tags.replacements            11174                       # number of replacements
system.cpu0.dcache.tags.tagsinuse                 512                       # Cycle average of tags in use
system.cpu0.dcache.tags.total_refs            4792541                       # Total number of references to valid blocks.
system.cpu0.dcache.tags.sampled_refs            11174                       # Sample count of references to valid blocks.
system.cpu0.dcache.tags.avg_refs           428.901110                       # Average number of references to valid blocks.
system.cpu0.dcache.tags.warmup_cycle                0                       # Cycle when the warmup percentage was hit.
system.cpu0.dcache.tags.occ_blocks::cpu0.data          512                       # Average occupied blocks per requestor
system.cpu0.dcache.tags.occ_percent::cpu0.data            1                       # Average percentage of cache occupancy
system.cpu0.dcache.tags.occ_percent::total            1                       # Average percentage of cache occupancy
system.cpu0.dcache.tags.occ_task_id_blocks::1024          512                       # Occupied blocks per task id
system.cpu0.dcache.tags.age_task_id_blocks_1024::0            8                       # Occupied blocks per task id
system.cpu0.dcache.tags.age_task_id_blocks_1024::1           44                       # Occupied blocks per task id
system.cpu0.dcache.tags.age_task_id_blocks_1024::2          199                       # Occupied blocks per task id
system.cpu0.dcache.tags.age_task_id_blocks_1024::3          166                       # Occupied blocks per task id
system.cpu0.dcache.tags.age_task_id_blocks_1024::4           95                       # Occupied blocks per task id
system.cpu0.dcache.tags.occ_task_id_percent::1024            1                       # Percentage of cache occupancy per task id
system.cpu0.dcache.tags.tag_accesses         57719998                       # Number of tag accesses
system.cpu0.dcache.tags.data_accesses        57719998                       # Number of data accesses
system.cpu0.dcache.pwrStateResidencyTicks::UNDEFINED  15267344125                       # Cumulative time (in ticks) in various power states
system.cpu0.dcache.ReadReq_hits::cpu0.data      8338836                       # number of ReadReq hits
system.cpu0.dcache.ReadReq_hits::total        8338836                       # number of ReadReq hits
system.cpu0.dcache.WriteReq_hits::cpu0.data      6067304                       # number of WriteReq hits
system.cpu0.dcache.WriteReq_hits::total       6067304                       # number of WriteReq hits
system.cpu0.dcache.demand_hits::cpu0.data     14406140                       # number of demand (read+write) hits
system.cpu0.dcache.demand_hits::total        14406140                       # number of demand (read+write) hits
system.cpu0.dcache.overall_hits::cpu0.data     14406140                       # number of overall hits
system.cpu0.dcache.overall_hits::total       14406140                       # number of overall hits
system.cpu0.dcache.ReadReq_misses::cpu0.data        17677                       # number of ReadReq misses
system.cpu0.dcache.ReadReq_misses::total        17677                       # number of ReadReq misses
system.cpu0.dcache.WriteReq_misses::cpu0.data         3389                       # number of WriteReq misses
system.cpu0.dcache.WriteReq_misses::total         3389                       # number of WriteReq misses
system.cpu0.dcache.demand_misses::cpu0.data        21066                       # number of demand (read+write) misses
system.cpu0.dcache.demand_misses::total         21066                       # number of demand (read+write) misses
system.cpu0.dcache.overall_misses::cpu0.data        21066                       # number of overall misses
system.cpu0.dcache.overall_misses::total        21066                       # number of overall misses
system.cpu0.dcache.ReadReq_miss_latency::cpu0.data    289132000                       # number of ReadReq miss cycles
system.cpu0.dcache.ReadReq_miss_latency::total    289132000                       # number of ReadReq miss cycles
system.cpu0.dcache.WriteReq_miss_latency::cpu0.data    593044500                       # number of WriteReq miss cycles
system.cpu0.dcache.WriteReq_miss_latency::total    593044500                       # number of WriteReq miss cycles
system.cpu0.dcache.demand_miss_latency::cpu0.data    882176500                       # number of demand (read+write) miss cycles
system.cpu0.dcache.demand_miss_latency::total    882176500                       # number of demand (read+write) miss cycles
system.cpu0.dcache.overall_miss_latency::cpu0.data    882176500                       # number of overall miss cycles
system.cpu0.dcache.overall_miss_latency::total    882176500                       # number of overall miss cycles
system.cpu0.dcache.ReadReq_accesses::cpu0.data      8356513                       # number of ReadReq accesses(hits+misses)
system.cpu0.dcache.ReadReq_accesses::total      8356513                       # number of ReadReq accesses(hits+misses)
system.cpu0.dcache.WriteReq_accesses::cpu0.data      6070693                       # number of WriteReq accesses(hits+misses)
system.cpu0.dcache.WriteReq_accesses::total      6070693                       # number of WriteReq accesses(hits+misses)
system.cpu0.dcache.demand_accesses::cpu0.data     14427206                       # number of demand (read+write) accesses
system.cpu0.dcache.demand_accesses::total     14427206                       # number of demand (read+write) accesses
system.cpu0.dcache.overall_accesses::cpu0.data     14427206                       # number of overall (read+write) accesses
system.cpu0.dcache.overall_accesses::total     14427206                       # number of overall (read+write) accesses
system.cpu0.dcache.ReadReq_miss_rate::cpu0.data     0.002115                       # miss rate for ReadReq accesses
system.cpu0.dcache.ReadReq_miss_rate::total     0.002115                       # miss rate for ReadReq accesses
system.cpu0.dcache.WriteReq_miss_rate::cpu0.data     0.000558                       # miss rate for WriteReq accesses
system.cpu0.dcache.WriteReq_miss_rate::total     0.000558                       # miss rate for WriteReq accesses
system.cpu0.dcache.demand_miss_rate::cpu0.data     0.001460                       # miss rate for demand accesses
system.cpu0.dcache.demand_miss_rate::total     0.001460                       # miss rate for demand accesses
system.cpu0.dcache.overall_miss_rate::cpu0.data     0.001460                       # miss rate for overall accesses
system.cpu0.dcache.overall_miss_rate::total     0.001460                       # miss rate for overall accesses
system.cpu0.dcache.ReadReq_avg_miss_latency::cpu0.data 16356.395316                       # average ReadReq miss latency
[...]
system.l2.WritebackClean_accesses::total        62308                       # number of WritebackClean accesses(hits+misses)
system.l2.UpgradeReq_accesses::cpu0.data            4                       # number of UpgradeReq accesses(hits+misses)
system.l2.UpgradeReq_accesses::total                4                       # number of UpgradeReq accesses(hits+misses)
system.l2.ReadExReq_accesses::cpu0.data          3360                       # number of ReadExReq accesses(hits+misses)
system.l2.ReadExReq_accesses::total              3360                       # number of ReadExReq accesses(hits+misses)
system.l2.ReadCleanReq_accesses::cpu0.inst        62308                       # number of ReadCleanReq accesses(hits+misses)
system.l2.ReadCleanReq_accesses::total          62308                       # number of ReadCleanReq accesses(hits+misses)
system.l2.ReadSharedReq_accesses::cpu0.data         7817                       # number of ReadSharedReq accesses(hits+misses)
system.l2.ReadSharedReq_accesses::total          7817                       # number of ReadSharedReq accesses(hits+misses)
system.l2.demand_accesses::cpu0.inst            62308                       # number of demand (read+write) accesses
system.l2.demand_accesses::cpu0.data            11177                       # number of demand (read+write) accesses
system.l2.demand_accesses::total                73485                       # number of demand (read+write) accesses
system.l2.overall_accesses::cpu0.inst           62308                       # number of overall (read+write) accesses
system.l2.overall_accesses::cpu0.data           11177                       # number of overall (read+write) accesses
system.l2.overall_accesses::total               73485                       # number of overall (read+write) accesses
system.l2.ReadExReq_miss_rate::cpu0.data     0.958036                       # miss rate for ReadExReq accesses
system.l2.ReadExReq_miss_rate::total         0.958036                       # miss rate for ReadExReq accesses
system.l2.ReadSharedReq_miss_rate::cpu0.data     0.053601                       # miss rate for ReadSharedReq accesses
system.l2.ReadSharedReq_miss_rate::total     0.053601                       # miss rate for ReadSharedReq accesses
system.l2.demand_miss_rate::cpu0.data        0.325490                       # miss rate for demand accesses
system.l2.demand_miss_rate::total            0.049507                       # miss rate for demand accesses
system.l2.overall_miss_rate::cpu0.data       0.325490                       # miss rate for overall accesses
system.l2.overall_miss_rate::total           0.049507                       # miss rate for overall accesses
system.l2.ReadExReq_avg_miss_latency::cpu0.data 180118.515067                       # average ReadExReq miss latency
system.l2.ReadExReq_avg_miss_latency::total 180118.515067                       # average ReadExReq miss latency
system.l2.ReadSharedReq_avg_miss_latency::cpu0.data 107109.785203                       # average ReadSharedReq miss latency
system.l2.ReadSharedReq_avg_miss_latency::total 107109.785203                       # average ReadSharedReq miss latency
system.l2.demand_avg_miss_latency::cpu0.data 171709.868059                       # average overall miss latency
system.l2.demand_avg_miss_latency::total 171709.868059                       # average overall miss latency
system.l2.overall_avg_miss_latency::cpu0.data 171709.868059                       # average overall miss latency
system.l2.overall_avg_miss_latency::total 171709.868059                       # average overall miss latency
system.l2.blocked_cycles::no_mshrs                  0                       # number of cycles access was blocked
system.l2.blocked_cycles::no_targets                0                       # number of cycles access was blocked
system.l2.blocked::no_mshrs                         0                       # number of cycles access was blocked
system.l2.blocked::no_targets                       0                       # number of cycles access was blocked
system.l2.avg_blocked_cycles::no_mshrs            nan                       # average number of cycles each access was blocked
system.l2.avg_blocked_cycles::no_targets          nan                       # average number of cycles each access was blocked
system.l2.writebacks::writebacks                 2062                       # number of writebacks
system.l2.writebacks::total                      2062                       # number of writebacks
system.l2.ReadExReq_mshr_misses::cpu0.data         3219                       # number of ReadExReq MSHR misses
system.l2.ReadExReq_mshr_misses::total           3219                       # number of ReadExReq MSHR misses
system.l2.ReadSharedReq_mshr_misses::cpu0.data          419                       # number of ReadSharedReq MSHR misses
system.l2.ReadSharedReq_mshr_misses::total          419                       # number of ReadSharedReq MSHR misses
system.l2.demand_mshr_misses::cpu0.data          3638                       # number of demand (read+write) MSHR misses
system.l2.demand_mshr_misses::total              3638                       # number of demand (read+write) MSHR misses
system.l2.overall_mshr_misses::cpu0.data         3638                       # number of overall MSHR misses
system.l2.overall_mshr_misses::total             3638                       # number of overall MSHR misses
system.l2.ReadExReq_mshr_miss_latency::cpu0.data    547611500                       # number of ReadExReq MSHR miss cycles
system.l2.ReadExReq_mshr_miss_latency::total    547611500                       # number of ReadExReq MSHR miss cycles
system.l2.ReadSharedReq_mshr_miss_latency::cpu0.data     40689000                       # number of ReadSharedReq MSHR miss cycles
system.l2.ReadSharedReq_mshr_miss_latency::total     40689000                       # number of ReadSharedReq MSHR miss cycles
system.l2.demand_mshr_miss_latency::cpu0.data    588300500                       # number of demand (read+write) MSHR miss cycles
system.l2.demand_mshr_miss_latency::total    588300500                       # number of demand (read+write) MSHR miss cycles
system.l2.overall_mshr_miss_latency::cpu0.data    588300500                       # number of overall MSHR miss cycles
system.l2.overall_mshr_miss_latency::total    588300500                       # number of overall MSHR miss cycles
system.l2.ReadExReq_mshr_miss_rate::cpu0.data     0.958036                       # mshr miss rate for ReadExReq accesses
system.l2.ReadExReq_mshr_miss_rate::total     0.958036                       # mshr miss rate for ReadExReq accesses
system.l2.ReadSharedReq_mshr_miss_rate::cpu0.data     0.053601                       # mshr miss rate for ReadSharedReq accesses
system.l2.ReadSharedReq_mshr_miss_rate::total     0.053601                       # mshr miss rate for ReadSharedReq accesses
system.l2.demand_mshr_miss_rate::cpu0.data     0.325490                       # mshr miss rate for demand accesses
system.l2.demand_mshr_miss_rate::total       0.049507                       # mshr miss rate for demand accesses
system.l2.overall_mshr_miss_rate::cpu0.data     0.325490                       # mshr miss rate for overall accesses
system.l2.overall_mshr_miss_rate::total      0.049507                       # mshr miss rate for overall accesses
system.l2.ReadExReq_avg_mshr_miss_latency::cpu0.data 170118.515067                       # average ReadExReq mshr miss latency
system.l2.ReadExReq_avg_mshr_miss_latency::total 170118.515067                       # average ReadExReq mshr miss latency
system.l2.ReadSharedReq_avg_mshr_miss_latency::cpu0.data 97109.785203                       # average ReadSharedReq mshr miss latency
system.l2.ReadSharedReq_avg_mshr_miss_latency::total 97109.785203                       # average ReadSharedReq mshr miss latency
system.l2.demand_avg_mshr_miss_latency::cpu0.data 161709.868059                       # average overall mshr miss latency
system.l2.demand_avg_mshr_miss_latency::total 161709.868059                       # average overall mshr miss latency
system.l2.overall_avg_mshr_miss_latency::cpu0.data 161709.868059                       # average overall mshr miss latency
system.l2.overall_avg_mshr_miss_latency::total 161709.868059                       # average overall mshr miss latency
system.membus.snoop_filter.tot_requests          6008                       # Total number of requests made to the snoop filter.
system.membus.snoop_filter.hit_single_requests         2370                       # Number of requests hitting in the snoop filter with a single holder of the requested data.
system.membus.snoop_filter.hit_multi_requests            0                       # Number of requests hitting in the snoop filter with multiple (>1) holders of the requested data.
system.membus.snoop_filter.tot_snoops               0                       # Total number of snoops made to the snoop filter.
system.membus.snoop_filter.hit_single_snoops            0                       # Number of snoops hitting in the snoop filter with a single holder of the requested data.
system.membus.snoop_filter.hit_multi_snoops            0                       # Number of snoops hitting in the snoop filter with multiple (>1) holders of the requested data.
system.membus.pwrStateResidencyTicks::UNDEFINED  15267344125                       # Cumulative time (in ticks) in various power states
system.membus.trans_dist::ReadResp                419                       # Transaction distribution
system.membus.trans_dist::WritebackDirty         2062                       # Transaction distribution
system.membus.trans_dist::CleanEvict              308                       # Transaction distribution
system.membus.trans_dist::ReadExReq              3219                       # Transaction distribution
system.membus.trans_dist::ReadExResp             3219                       # Transaction distribution
system.membus.trans_dist::ReadSharedReq           419                       # Transaction distribution
system.membus.pkt_count_system.l2.mem_side::system.mem_ctrls.port         9646                       # Packet count per connected master and slave (bytes)
system.membus.pkt_count_system.l2.mem_side::total         9646                       # Packet count per connected master and slave (bytes)
system.membus.pkt_count::total                   9646                       # Packet count per connected master and slave (bytes)
system.membus.pkt_size_system.l2.mem_side::system.mem_ctrls.port       364800                       # Cumulative packet size per connected master and slave (bytes)
system.membus.pkt_size_system.l2.mem_side::total       364800                       # Cumulative packet size per connected master and slave (bytes)
system.membus.pkt_size::total                  364800                       # Cumulative packet size per connected master and slave (bytes)
system.membus.snoops                                0                       # Total snoops (count)
system.membus.snoopTraffic                          0                       # Total snoop traffic (bytes)
system.membus.snoop_fanout::samples              3638                       # Request fanout histogram
system.membus.snoop_fanout::mean                    0                       # Request fanout histogram
system.membus.snoop_fanout::stdev                   0                       # Request fanout histogram
system.membus.snoop_fanout::underflows              0      0.00%      0.00% # Request fanout histogram
system.membus.snoop_fanout::0                    3638    100.00%    100.00% # Request fanout histogram
system.membus.snoop_fanout::1                       0      0.00%    100.00% # Request fanout histogram
system.membus.snoop_fanout::overflows               0      0.00%    100.00% # Request fanout histogram
system.membus.snoop_fanout::min_value               0                       # Request fanout histogram
system.membus.snoop_fanout::max_value               0                       # Request fanout histogram
system.membus.snoop_fanout::total                3638                       # Request fanout histogram
system.membus.reqLayer12.occupancy           15151500                       # Layer occupancy (ticks)
system.membus.reqLayer12.utilization              0.1                       # Layer utilization (%)
system.membus.respLayer1.occupancy           20007500                       # Layer occupancy (ticks)
system.membus.respLayer1.utilization              0.1                       # Layer utilization (%)
system.tol2bus.snoop_filter.tot_requests       146975                       # Total number of requests made to the snoop filter.
system.tol2bus.snoop_filter.hit_single_requests        73482                       # Number of requests hitting in the snoop filter with a single holder of the requested data.
system.tol2bus.snoop_filter.hit_multi_requests           11                       # Number of requests hitting in the snoop filter with multiple (>1) holders of the requested data.
system.tol2bus.snoop_filter.tot_snoops            125                       # Total number of snoops made to the snoop filter.
system.tol2bus.snoop_filter.hit_single_snoops          125                       # Number of snoops hitting in the snoop filter with a single holder of the requested data.
system.tol2bus.snoop_filter.hit_multi_snoops            0                       # Number of snoops hitting in the snoop filter with multiple (>1) holders of the requested data.
system.tol2bus.pwrStateResidencyTicks::UNDEFINED  15267344125                       # Cumulative time (in ticks) in various power states
system.tol2bus.trans_dist::ReadResp             70126                       # Transaction distribution
system.tol2bus.trans_dist::WritebackDirty         9730                       # Transaction distribution
system.tol2bus.trans_dist::WritebackClean        62308                       # Transaction distribution
system.tol2bus.trans_dist::CleanEvict            3939                       # Transaction distribution
system.tol2bus.trans_dist::UpgradeReq               4                       # Transaction distribution
system.tol2bus.trans_dist::UpgradeResp              4                       # Transaction distribution
system.tol2bus.trans_dist::ReadExReq             3360                       # Transaction distribution
system.tol2bus.trans_dist::ReadExResp            3360                       # Transaction distribution
system.tol2bus.trans_dist::ReadCleanReq         62312                       # Transaction distribution
system.tol2bus.trans_dist::ReadSharedReq         7817                       # Transaction distribution
system.tol2bus.pkt_count_system.cpu0.icache.mem_side::system.l2.cpu_side       186928                       # Packet count per connected master and slave (bytes)
system.tol2bus.pkt_count_system.cpu0.dcache.mem_side::system.l2.cpu_side        33533                       # Packet count per connected master and slave (bytes)
system.tol2bus.pkt_count::total                220461                       # Packet count per connected master and slave (bytes)
system.tol2bus.pkt_size_system.cpu0.icache.mem_side::system.l2.cpu_side      7975424                       # Cumulative packet size per connected master and slave (bytes)
system.tol2bus.pkt_size_system.cpu0.dcache.mem_side::system.l2.cpu_side      1205888                       # Cumulative packet size per connected master and slave (bytes)
system.tol2bus.pkt_size::total                9181312                       # Cumulative packet size per connected master and slave (bytes)
system.tol2bus.snoops                            2499                       # Total snoops (count)
system.tol2bus.snoopTraffic                    132224                       # Total snoop traffic (bytes)
system.tol2bus.snoop_fanout::samples            75988                       # Request fanout histogram
system.tol2bus.snoop_fanout::mean            0.001790                       # Request fanout histogram
system.tol2bus.snoop_fanout::stdev           0.042268                       # Request fanout histogram
system.tol2bus.snoop_fanout::underflows             0      0.00%      0.00% # Request fanout histogram
system.tol2bus.snoop_fanout::0                  75852     99.82%     99.82% # Request fanout histogram
system.tol2bus.snoop_fanout::1                    136      0.18%    100.00% # Request fanout histogram
system.tol2bus.snoop_fanout::2                      0      0.00%    100.00% # Request fanout histogram
system.tol2bus.snoop_fanout::3                      0      0.00%    100.00% # Request fanout histogram
system.tol2bus.snoop_fanout::4                      0      0.00%    100.00% # Request fanout histogram
system.tol2bus.snoop_fanout::5                      0      0.00%    100.00% # Request fanout histogram
system.tol2bus.snoop_fanout::6                      0      0.00%    100.00% # Request fanout histogram
system.tol2bus.snoop_fanout::7                      0      0.00%    100.00% # Request fanout histogram
system.tol2bus.snoop_fanout::8                      0      0.00%    100.00% # Request fanout histogram
system.tol2bus.snoop_fanout::9                      0      0.00%    100.00% # Request fanout histogram
system.tol2bus.snoop_fanout::10                     0      0.00%    100.00% # Request fanout histogram
system.tol2bus.snoop_fanout::11                     0      0.00%    100.00% # Request fanout histogram
system.tol2bus.snoop_fanout::12                     0      0.00%    100.00% # Request fanout histogram
system.tol2bus.snoop_fanout::13                     0      0.00%    100.00% # Request fanout histogram
system.tol2bus.snoop_fanout::14                     0      0.00%    100.00% # Request fanout histogram
system.tol2bus.snoop_fanout::15                     0      0.00%    100.00% # Request fanout histogram
system.tol2bus.snoop_fanout::16                     0      0.00%    100.00% # Request fanout histogram
system.tol2bus.snoop_fanout::17                     0      0.00%    100.00% # Request fanout histogram
system.tol2bus.snoop_fanout::18                     0      0.00%    100.00% # Request fanout histogram
system.tol2bus.snoop_fanout::19                     0      0.00%    100.00% # Request fanout histogram
system.tol2bus.snoop_fanout::20                     0      0.00%    100.00% # Request fanout histogram
system.tol2bus.snoop_fanout::21                     0      0.00%    100.00% # Request fanout histogram
system.tol2bus.snoop_fanout::22                     0      0.00%    100.00% # Request fanout histogram
system.tol2bus.snoop_fanout::23                     0      0.00%    100.00% # Request fanout histogram
system.tol2bus.snoop_fanout::24                     0      0.00%    100.00% # Request fanout histogram
system.tol2bus.snoop_fanout::overflows              0      0.00%    100.00% # Request fanout histogram
system.tol2bus.snoop_fanout::min_value              0                       # Request fanout histogram
system.tol2bus.snoop_fanout::max_value              1                       # Request fanout histogram
system.tol2bus.snoop_fanout::total              75988                       # Request fanout histogram
system.tol2bus.reqLayer0.occupancy          143463500                       # Layer occupancy (ticks)
system.tol2bus.reqLayer0.utilization              0.9                       # Layer utilization (%)
system.tol2bus.respLayer0.occupancy          93469497                       # Layer occupancy (ticks)
system.tol2bus.respLayer0.utilization             0.6                       # Layer utilization (%)
system.tol2bus.respLayer1.occupancy          16771982                       # Layer occupancy (ticks)
system.tol2bus.respLayer1.utilization             0.1                       # Layer utilization (%)

---------- End Simulation Statistics   ----------
