
---------- Begin Simulation Statistics ----------
sim_seconds                                  0.015267                       # Number of seconds simulated
sim_ticks                                 15267344125                       # Number of ticks simulated
final_tick                               1618338477250                       # Number of ticks from beginning of simulation (restored from checkpoints and never reset)
sim_freq                                 1000000000000                       # Frequency of simulated ticks
host_inst_rate                               23653804                       # Simulator instruction rate (inst/s)
host_op_rate                                 43081963                       # Simulator op (including micro ops) rate (op/s)
host_tick_rate                               97801459                       # Simulator tick rate (ticks/s)
host_mem_usage                                3428828                       # Number of bytes of host memory used
host_seconds                                   156.11                       # Real time elapsed on the host
sim_insts                                  3692488000                       # Number of instructions simulated
sim_ops                                    6725330344                       # Number of ops (including micro ops) simulated
system.voltage_domain.voltage                       1                       # Voltage in Volts
system.clk_domain.clock                          1000                       # Clock period in ticks
system.mem_ctrls.pwrStateResidencyTicks::UNDEFINED  15267344125                       # Cumulative time (in ticks) in various power states
system.mem_ctrls.bytes_read::cpu0.inst          21376                       # Number of bytes read from this memory
system.mem_ctrls.bytes_read::cpu0.data        9401280                       # Number of bytes read from this memory
system.mem_ctrls.bytes_read::total            9422656                       # Number of bytes read from this memory
system.mem_ctrls.bytes_inst_read::cpu0.inst        21376                       # Number of instructions bytes read from this memory
system.mem_ctrls.bytes_inst_read::total         21376                       # Number of instructions bytes read from this memory
system.mem_ctrls.bytes_written::writebacks      8951744                       # Number of bytes written to this memory
system.mem_ctrls.bytes_written::total         8951744                       # Number of bytes written to this memory
system.mem_ctrls.num_reads::cpu0.inst             334                       # Number of read requests responded to by this memory
system.mem_ctrls.num_reads::cpu0.data          146895                       # Number of read requests responded to by this memory
system.mem_ctrls.num_reads::total              147229                       # Number of read requests responded to by this memory
system.mem_ctrls.num_writes::writebacks        139871                       # Number of write requests responded to by this memory
system.mem_ctrls.num_writes::total             139871                       # Number of write requests responded to by this memory
system.mem_ctrls.bw_read::cpu0.inst           1400113                       # Total read bandwidth from this memory (bytes/s)
system.mem_ctrls.bw_read::cpu0.data         615777042                       # Total read bandwidth from this memory (bytes/s)
system.mem_ctrls.bw_read::total             617177154                       # Total read bandwidth from this memory (bytes/s)
system.mem_ctrls.bw_inst_read::cpu0.inst      1400113                       # Instruction read bandwidth from this memory (bytes/s)
system.mem_ctrls.bw_inst_read::total          1400113                       # Instruction read bandwidth from this memory (bytes/s)
system.mem_ctrls.bw_write::writebacks       586332759                       # Write bandwidth from this memory (bytes/s)
system.mem_ctrls.bw_write::total            586332759                       # Write bandwidth from this memory (bytes/s)
system.mem_ctrls.bw_total::writebacks       586332759                       # Total bandwidth to/from this memory (bytes/s)
system.mem_ctrls.bw_total::cpu0.inst          1400113                       # Total bandwidth to/from this memory (bytes/s)
system.mem_ctrls.bw_total::cpu0.data        615777042                       # Total bandwidth to/from this memory (bytes/s)
system.mem_ctrls.bw_total::total           1203509913                       # Total bandwidth to/from this memory (bytes/s)
system.mem_ctrls.readReqs                      147229                       # Number of read requests accepted
system.mem_ctrls.writeReqs                     139871                       # Number of write requests accepted
system.mem_ctrls.readBursts                    147229                       # Number of DRAM read bursts, including those serviced by the write queue
system.mem_ctrls.writeBursts                   139871                       # Number of DRAM write bursts, including those merged in the write queue
system.mem_ctrls.bytesReadDRAM                9422656                       # Total number of bytes read from DRAM
system.mem_ctrls.bytesReadWrQ                       0                       # Total number of bytes read from write queue
system.mem_ctrls.bytesWritten                 8952128                       # Total number of bytes written to DRAM
system.mem_ctrls.bytesReadSys                 9422656                       # Total read bytes from the system interface side
system.mem_ctrls.bytesWrittenSys              8951744                       # Total written bytes from the system interface side
system.mem_ctrls.servicedByWrQ                      0                       # Number of DRAM read bursts serviced by the write queue
system.mem_ctrls.mergedWrBursts                     0                       # Number of DRAM write bursts merged with an existing one
system.mem_ctrls.neitherReadNorWriteReqs            0                       # Number of requests that are neither read nor write
system.mem_ctrls.perBankRdBursts::0              9149                       # Per bank write bursts
system.mem_ctrls.perBankRdBursts::1              9246                       # Per bank write bursts
system.mem_ctrls.perBankRdBursts::2              9346                       # Per bank write bursts
system.mem_ctrls.perBankRdBursts::3              9363                       # Per bank write bursts
system.mem_ctrls.perBankRdBursts::4              9152                       # Per bank write bursts
system.mem_ctrls.perBankRdBursts::5              9140                       # Per bank write bursts
system.mem_ctrls.perBankRdBursts::6              9370                       # Per bank write bursts
system.mem_ctrls.perBankRdBursts::7              9230                       # Per bank write bursts
system.mem_ctrls.perBankRdBursts::8              9326                       # Per bank write bursts
system.mem_ctrls.perBankRdBursts::9              9249                       # Per bank write bursts
system.mem_ctrls.perBankRdBursts::10             9094                       # Per bank write bursts
system.mem_ctrls.perBankRdBursts::11             9113                       # Per bank write bursts
system.mem_ctrls.perBankRdBursts::12             9151                       # Per bank write bursts
system.mem_ctrls.perBankRdBursts::13             9110                       # Per bank write bursts
system.mem_ctrls.perBankRdBursts::14             9128                       # Per bank write bursts
system.mem_ctrls.perBankRdBursts::15             9062                       # Per bank write bursts
system.mem_ctrls.perBankWrBursts::0              8763                       # Per bank write bursts
system.mem_ctrls.perBankWrBursts::1              8789                       # Per bank write bursts
system.mem_ctrls.perBankWrBursts::2              8772                       # Per bank write bursts
system.mem_ctrls.perBankWrBursts::3              8876                       # Per bank write bursts
system.mem_ctrls.perBankWrBursts::4              8707                       # Per bank write bursts
system.mem_ctrls.perBankWrBursts::5              8707                       # Per bank write bursts
system.mem_ctrls.perBankWrBursts::6              8929                       # Per bank write bursts
system.mem_ctrls.perBankWrBursts::7              8666                       # Per bank write bursts
system.mem_ctrls.perBankWrBursts::8              8824                       # Per bank write bursts
system.mem_ctrls.perBankWrBursts::9              8918                       # Per bank write bursts
system.mem_ctrls.perBankWrBursts::10             8776                       # Per bank write bursts
system.mem_ctrls.perBankWrBursts::11             8723                       # Per bank write bursts
system.mem_ctrls.perBankWrBursts::12             8592                       # Per bank write bursts
system.mem_ctrls.perBankWrBursts::13             8510                       # Per bank write bursts
system.mem_ctrls.perBankWrBursts::14             8667                       # Per bank write bursts
system.mem_ctrls.perBankWrBursts::15             8658                       # Per bank write bursts
system.mem_ctrls.numRdRetry                         0                       # Number of times read queue was full causing retry
system.mem_ctrls.numWrRetry                         0                       # Number of times write queue was full causing retry
system.mem_ctrls.totGap                   15268157500                       # Total gap between requests
system.mem_ctrls.readPktSize::0                     0                       # Read request sizes (log2)
system.mem_ctrls.readPktSize::1                     0                       # Read request sizes (log2)
system.mem_ctrls.readPktSize::2                     0                       # Read request sizes (log2)
system.mem_ctrls.readPktSize::3                     0                       # Read request sizes (log2)
system.mem_ctrls.readPktSize::4                     0                       # Read request sizes (log2)
system.mem_ctrls.readPktSize::5                     0                       # Read request sizes (log2)
system.mem_ctrls.readPktSize::6                147229                       # Read request sizes (log2)
system.mem_ctrls.writePktSize::0                    0                       # Write request sizes (log2)
system.mem_ctrls.writePktSize::1                    0                       # Write request sizes (log2)
system.mem_ctrls.writePktSize::2                    0                       # Write request sizes (log2)
system.mem_ctrls.writePktSize::3                    0                       # Write request sizes (log2)
system.mem_ctrls.writePktSize::4                    0                       # Write request sizes (log2)
system.mem_ctrls.writePktSize::5                    0                       # Write request sizes (log2)
system.mem_ctrls.writePktSize::6               139871                       # Write request sizes (log2)
system.mem_ctrls.rdQLenPdf::0                   88780                       # What read queue length does an incoming req see
system.mem_ctrls.rdQLenPdf::1                   58354                       # What read queue length does an incoming req see
system.mem_ctrls.rdQLenPdf::2                      65                       # What read queue length does an incoming req see
system.mem_ctrls.rdQLenPdf::3                      21                       # What read queue length does an incoming req see
system.mem_ctrls.rdQLenPdf::4                       8                       # What read queue length does an incoming req see
system.mem_ctrls.rdQLenPdf::5                       1                       # What read queue length does an incoming req see
system.mem_ctrls.rdQLenPdf::6                       0                       # What read queue length does an incoming req see
system.mem_ctrls.rdQLenPdf::7                       0                       # What read queue length does an incoming req see
system.mem_ctrls.rdQLenPdf::8                       0                       # What read queue length does an incoming req see
system.mem_ctrls.rdQLenPdf::9                       0                       # What read queue length does an incoming req see
system.mem_ctrls.rdQLenPdf::10                      0                       # What read queue length does an incoming req see
system.mem_ctrls.rdQLenPdf::11                      0                       # What read queue length does an incoming req see
system.mem_ctrls.rdQLenPdf::12                      0                       # What read queue length does an incoming req see
system.mem_ctrls.rdQLenPdf::13                      0                       # What read queue length does an incoming req see
system.mem_ctrls.rdQLenPdf::14                      0                       # What read queue length does an incoming req see
system.mem_ctrls.rdQLenPdf::15                      0                       # What read queue length does an incoming req see
system.mem_ctrls.rdQLenPdf::16                      0                       # What read queue length does an incoming req see
system.mem_ctrls.rdQLenPdf::17                      0                       # What read queue length does an incoming req see
system.mem_ctrls.rdQLenPdf::18                      0                       # What read queue length does an incoming req see
system.mem_ctrls.rdQLenPdf::19                      0                       # What read queue length does an incoming req see
system.mem_ctrls.rdQLenPdf::20                      0                       # What read queue length does an incoming req see
system.mem_ctrls.rdQLenPdf::21                      0                       # What read queue length does an incoming req see
system.mem_ctrls.rdQLenPdf::22                      0                       # What read queue length does an incoming req see
system.mem_ctrls.rdQLenPdf::23                      0                       # What read queue length does an incoming req see
system.mem_ctrls.rdQLenPdf::24                      0                       # What read queue length does an incoming req see
system.mem_ctrls.rdQLenPdf::25                      0                       # What read queue length does an incoming req see
system.mem_ctrls.rdQLenPdf::26                      0                       # What read queue length does an incoming req see
system.mem_ctrls.rdQLenPdf::27                      0                       # What read queue length does an incoming req see
system.mem_ctrls.rdQLenPdf::28                      0                       # What read queue length does an incoming req see
system.mem_ctrls.rdQLenPdf::29                      0                       # What read queue length does an incoming req see
system.mem_ctrls.rdQLenPdf::30                      0                       # What read queue length does an incoming req see
system.mem_ctrls.rdQLenPdf::31                      0                       # What read queue length does an incoming req see
system.mem_ctrls.wrQLenPdf::0                       0                       # What write queue length does an incoming req see
system.mem_ctrls.wrQLenPdf::1                       0                       # What write queue length does an incoming req see
system.mem_ctrls.wrQLenPdf::2                       0                       # What write queue length does an incoming req see
system.mem_ctrls.wrQLenPdf::3                       0                       # What write queue length does an incoming req see
system.mem_ctrls.wrQLenPdf::4                       0                       # What write queue length does an incoming req see
system.mem_ctrls.wrQLenPdf::5                       0                       # What write queue length does an incoming req see
system.mem_ctrls.wrQLenPdf::6                       0                       # What write queue length does an incoming req see
system.mem_ctrls.wrQLenPdf::7                       0                       # What write queue length does an incoming req see
system.mem_ctrls.wrQLenPdf::8                       0                       # What write queue length does an incoming req see
system.mem_ctrls.wrQLenPdf::9                       0                       # What write queue length does an incoming req see
system.mem_ctrls.wrQLenPdf::10                      0                       # What write queue length does an incoming req see
system.mem_ctrls.wrQLenPdf::11                      0                       # What write queue length does an incoming req see
system.mem_ctrls.wrQLenPdf::12                      0                       # What write queue length does an incoming req see
system.mem_ctrls.wrQLenPdf::13                      0                       # What write queue length does an incoming req see
system.mem_ctrls.wrQLenPdf::14                      0                       # What write queue length does an incoming req see
system.mem_ctrls.wrQLenPdf::15                    299                       # What write queue length does an incoming req see
system.mem_ctrls.wrQLenPdf::16                    301                       # What write queue length does an incoming req see
system.mem_ctrls.wrQLenPdf::17                   4468                       # What write queue length does an incoming req see
system.mem_ctrls.wrQLenPdf::18                   8731                       # What write queue length does an incoming req see
system.mem_ctrls.wrQLenPdf::19                   8706                       # What write queue length does an incoming req see
system.mem_ctrls.wrQLenPdf::20                   8710                       # What write queue length does an incoming req see
system.mem_ctrls.wrQLenPdf::21                   8707                       # What write queue length does an incoming req see
system.mem_ctrls.wrQLenPdf::22                   8705                       # What write queue length does an incoming req see
system.mem_ctrls.wrQLenPdf::23                   8706                       # What write queue length does an incoming req see
system.mem_ctrls.wrQLenPdf::24                   8775                       # What write queue length does an incoming req see
system.mem_ctrls.wrQLenPdf::25                   8773                       # What write queue length does an incoming req see
system.mem_ctrls.wrQLenPdf::26                   8733                       # What write queue length does an incoming req see
system.mem_ctrls.wrQLenPdf::27                   8716                       # What write queue length does an incoming req see
system.mem_ctrls.wrQLenPdf::28                   9666                       # What write queue length does an incoming req see
system.mem_ctrls.wrQLenPdf::29                  10795                       # What write queue length does an incoming req see
system.mem_ctrls.wrQLenPdf::30                   8828                       # What write queue length does an incoming req see
system.mem_ctrls.wrQLenPdf::31                   8756                       # What write queue length does an incoming req see
system.mem_ctrls.wrQLenPdf::32                   9481                       # What write queue length does an incoming req see
system.mem_ctrls.wrQLenPdf::33                     15                       # What write queue length does an incoming req see
system.mem_ctrls.wrQLenPdf::34                      0                       # What write queue length does an incoming req see
system.mem_ctrls.wrQLenPdf::35                      0                       # What write queue length does an incoming req see
system.mem_ctrls.wrQLenPdf::36                      0                       # What write queue length does an incoming req see
system.mem_ctrls.wrQLenPdf::37                      0                       # What write queue length does an incoming req see
system.mem_ctrls.wrQLenPdf::38                      0                       # What write queue length does an incoming req see
system.mem_ctrls.wrQLenPdf::39                      0                       # What write queue length does an incoming req see
system.mem_ctrls.wrQLenPdf::40                      0                       # What write queue length does an incoming req see
system.mem_ctrls.wrQLenPdf::41                      0                       # What write queue length does an incoming req see
system.mem_ctrls.wrQLenPdf::42                      0                       # What write queue length does an incoming req see
system.mem_ctrls.wrQLenPdf::43                      0                       # What write queue length does an incoming req see
system.mem_ctrls.wrQLenPdf::44                      0                       # What write queue length does an incoming req see
system.mem_ctrls.wrQLenPdf::45                      0                       # What write queue length does an incoming req see
system.mem_ctrls.wrQLenPdf::46                      0                       # What write queue length does an incoming req see
system.mem_ctrls.wrQLenPdf::47                      0                       # What write queue length does an incoming req see
system.mem_ctrls.wrQLenPdf::48                      0                       # What write queue length does an incoming req see
system.mem_ctrls.wrQLenPdf::49                      0                       # What write queue length does an incoming req see
system.mem_ctrls.wrQLenPdf::50                      0                       # What write queue length does an incoming req see
system.mem_ctrls.wrQLenPdf::51                      0                       # What write queue length does an incoming req see
system.mem_ctrls.wrQLenPdf::52                      0                       # What write queue length does an incoming req see
system.mem_ctrls.wrQLenPdf::53                      0                       # What write queue length does an incoming req see
system.mem_ctrls.wrQLenPdf::54                      0                       # What write queue length does an incoming req see
system.mem_ctrls.wrQLenPdf::55                      0                       # What write queue length does an incoming req see
system.mem_ctrls.wrQLenPdf::56                      0                       # What write queue length does an incoming req see
system.mem_ctrls.wrQLenPdf::57                      0                       # What write queue length does an incoming req see
system.mem_ctrls.wrQLenPdf::58                      0                       # What write queue length does an incoming req see
system.mem_ctrls.wrQLenPdf::59                      0                       # What write queue length does an incoming req see
system.mem_ctrls.wrQLenPdf::60                      0                       # What write queue length does an incoming req see
system.mem_ctrls.wrQLenPdf::61                      0                       # What write queue length does an incoming req see
system.mem_ctrls.wrQLenPdf::62                      0                       # What write queue length does an incoming req see
system.mem_ctrls.wrQLenPdf::63                      0                       # What write queue length does an incoming req see
system.mem_ctrls.bytesPerActivate::samples        23919                       # Bytes accessed per row activation
system.mem_ctrls.bytesPerActivate::mean    768.211380                       # Bytes accessed per row activation
system.mem_ctrls.bytesPerActivate::gmean   613.709597                       # Bytes accessed per row activation
system.mem_ctrls.bytesPerActivate::stdev   349.921630                       # Bytes accessed per row activation
system.mem_ctrls.bytesPerActivate::0-127         1651      6.90%      6.90% # Bytes accessed per row activation
system.mem_ctrls.bytesPerActivate::128-255         1547      6.47%     13.37% # Bytes accessed per row activation
system.mem_ctrls.bytesPerActivate::256-383         1272      5.32%     18.69% # Bytes accessed per row activation
system.mem_ctrls.bytesPerActivate::384-511         1640      6.86%     25.54% # Bytes accessed per row activation
system.mem_ctrls.bytesPerActivate::512-639         1164      4.87%     30.41% # Bytes accessed per row activation
system.mem_ctrls.bytesPerActivate::640-767         1000      4.18%     34.59% # Bytes accessed per row activation
system.mem_ctrls.bytesPerActivate::768-895          867      3.62%     38.22% # Bytes accessed per row activation
system.mem_ctrls.bytesPerActivate::896-1023          958      4.01%     42.22% # Bytes accessed per row activation
system.mem_ctrls.bytesPerActivate::1024-1151        13820     57.78%    100.00% # Bytes accessed per row activation
system.mem_ctrls.bytesPerActivate::total        23919                       # Bytes accessed per row activation
system.mem_ctrls.rdPerTurnAround::samples         8703                       # Reads before turning the bus around for writes
system.mem_ctrls.rdPerTurnAround::mean      16.917844                       # Reads before turning the bus around for writes
system.mem_ctrls.rdPerTurnAround::gmean     16.319150                       # Reads before turning the bus around for writes
system.mem_ctrls.rdPerTurnAround::stdev     14.368617                       # Reads before turning the bus around for writes
system.mem_ctrls.rdPerTurnAround::0-31           8631     99.17%     99.17% # Reads before turning the bus around for writes
system.mem_ctrls.rdPerTurnAround::32-63            46      0.53%     99.70% # Reads before turning the bus around for writes
system.mem_ctrls.rdPerTurnAround::64-95             6      0.07%     99.77% # Reads before turning the bus around for writes
system.mem_ctrls.rdPerTurnAround::96-127            1      0.01%     99.78% # Reads before turning the bus around for writes
system.mem_ctrls.rdPerTurnAround::128-159            2      0.02%     99.80% # Reads before turning the bus around for writes
system.mem_ctrls.rdPerTurnAround::160-191            4      0.05%     99.85% # Reads before turning the bus around for writes
system.mem_ctrls.rdPerTurnAround::192-223            4      0.05%     99.90% # Reads before turning the bus around for writes
system.mem_ctrls.rdPerTurnAround::224-255            1      0.01%     99.91% # Reads before turning the bus around for writes
system.mem_ctrls.rdPerTurnAround::256-287            1      0.01%     99.92% # Reads before turning the bus around for writes
system.mem_ctrls.rdPerTurnAround::288-319            1      0.01%     99.93% # Reads before turning the bus around for writes
system.mem_ctrls.rdPerTurnAround::320-351            2      0.02%     99.95% # Reads before turning the bus around for writes
system.mem_ctrls.rdPerTurnAround::384-415            2      0.02%     99.98% # Reads before turning the bus around for writes
system.mem_ctrls.rdPerTurnAround::416-447            1      0.01%     99.99% # Reads before turning the bus around for writes
system.mem_ctrls.rdPerTurnAround::768-799            1      0.01%    100.00% # Reads before turning the bus around for writes
system.mem_ctrls.rdPerTurnAround::total          8703                       # Reads before turning the bus around for writes
system.mem_ctrls.wrPerTurnAround::samples         8703                       # Writes before turning the bus around for reads
system.mem_ctrls.wrPerTurnAround::mean      16.072274                       # Writes before turning the bus around for reads
system.mem_ctrls.wrPerTurnAround::gmean     16.067964                       # Writes before turning the bus around for reads
system.mem_ctrls.wrPerTurnAround::stdev      0.388519                       # Writes before turning the bus around for reads
system.mem_ctrls.wrPerTurnAround::16             8398     96.50%     96.50% # Writes before turning the bus around for reads
system.mem_ctrls.wrPerTurnAround::17                5      0.06%     96.55% # Writes before turning the bus around for reads
system.mem_ctrls.wrPerTurnAround::18              289      3.32%     99.87% # Writes before turning the bus around for reads
system.mem_ctrls.wrPerTurnAround::19                1      0.01%     99.89% # Writes before turning the bus around for reads
system.mem_ctrls.wrPerTurnAround::20                8      0.09%     99.98% # Writes before turning the bus around for reads
system.mem_ctrls.wrPerTurnAround::21                1      0.01%     99.99% # Writes before turning the bus around for reads
system.mem_ctrls.wrPerTurnAround::22                1      0.01%    100.00% # Writes before turning the bus around for reads
system.mem_ctrls.wrPerTurnAround::total          8703                       # Writes before turning the bus around for reads
system.mem_ctrls.totQLat                   3158935250                       # Total ticks spent queuing
system.mem_ctrls.totMemAccLat              5919479000                       # Total ticks spent from burst creation until serviced by the DRAM
system.mem_ctrls.totBusLat                  736145000                       # Total ticks spent in databus transfers
system.mem_ctrls.avgQLat                     21455.93                       # Average queueing delay per DRAM burst
system.mem_ctrls.avgBusLat                    5000.00                       # Average bus latency per DRAM burst
system.mem_ctrls.avgMemAccLat                40205.93                       # Average memory access latency per DRAM burst
system.mem_ctrls.avgRdBW                       617.18                       # Average DRAM read bandwidth in MiByte/s
system.mem_ctrls.avgWrBW                       586.36                       # Average achieved write bandwidth in MiByte/s
system.mem_ctrls.avgRdBWSys                    617.18                       # Average system read bandwidth in MiByte/s
system.mem_ctrls.avgWrBWSys                    586.33                       # Average system write bandwidth in MiByte/s
system.mem_ctrls.peakBW                      12800.00                       # Theoretical peak bandwidth in MiByte/s
system.mem_ctrls.busUtil                         9.40                       # Data bus utilization in percentage
system.mem_ctrls.busUtilRead                     4.82                       # Data bus utilization in percentage for reads
system.mem_ctrls.busUtilWrite                    4.58                       # Data bus utilization in percentage for writes
system.mem_ctrls.avgRdQLen                       1.38                       # Average read queue length when enqueuing
system.mem_ctrls.avgWrQLen                      26.07                       # Average write queue length when enqueuing
system.mem_ctrls.readRowHits                   134754                       # Number of row buffer hits during reads
system.mem_ctrls.writeRowHits                  128434                       # Number of row buffer hits during writes
system.mem_ctrls.readRowHitRate                 91.53                       # Row buffer hit rate for reads
system.mem_ctrls.writeRowHitRate                91.82                       # Row buffer hit rate for writes
system.mem_ctrls.avgGap                      53180.63                       # Average gap between requests
system.mem_ctrls.pageHitRate                    91.67                       # Row buffer hit rate, read and write combined
system.mem_ctrls_0.actEnergy                 87679200                       # Energy for activate commands per rank (pJ)
system.mem_ctrls_0.preEnergy                 46606395                       # Energy for precharge commands per rank (pJ)
system.mem_ctrls_0.readEnergy               528331440                       # Energy for read commands per rank (pJ)
system.mem_ctrls_0.writeEnergy              366490980                       # Energy for write commands per rank (pJ)
system.mem_ctrls_0.refreshEnergy         918272160.000000                       # Energy for refresh commands per rank (pJ)
system.mem_ctrls_0.actBackEnergy           1315866090                       # Energy for active background per rank (pJ)
system.mem_ctrls_0.preBackEnergy             69352800                       # Energy for precharge background per rank (pJ)
system.mem_ctrls_0.actPowerDownEnergy      2522637600                       # Energy for active power-down per rank (pJ)
system.mem_ctrls_0.prePowerDownEnergy       672498720                       # Energy for precharge power-down per rank (pJ)
system.mem_ctrls_0.selfRefreshEnergy       1277986680                       # Energy for self refresh per rank (pJ)
system.mem_ctrls_0.totalEnergy             7805790195                       # Total energy per rank (pJ)
system.mem_ctrls_0.averagePower            511.273613                       # Core power per rank (mW)
system.mem_ctrls_0.totalIdleTime          12201042625                       # Total Idle time Per DRAM Rank
system.mem_ctrls_0.memoryStateTime::IDLE     71909250                       # Time in different power states
system.mem_ctrls_0.memoryStateTime::REF     389532000                       # Time in different power states
system.mem_ctrls_0.memoryStateTime::SREF   4917508500                       # Time in different power states
system.mem_ctrls_0.memoryStateTime::PRE_PDN   1751386000                       # Time in different power states
system.mem_ctrls_0.memoryStateTime::ACT    2604849250                       # Time in different power states
system.mem_ctrls_0.memoryStateTime::ACT_PDN   5532159125                       # Time in different power states
system.mem_ctrls_1.actEnergy                 83095320                       # Energy for activate commands per rank (pJ)
system.mem_ctrls_1.preEnergy                 44166210                       # Energy for precharge commands per rank (pJ)
system.mem_ctrls_1.readEnergy               522883620                       # Energy for read commands per rank (pJ)
system.mem_ctrls_1.writeEnergy              363666960                       # Energy for write commands per rank (pJ)
system.mem_ctrls_1.refreshEnergy         903520800.000000                       # Energy for refresh commands per rank (pJ)
system.mem_ctrls_1.actBackEnergy           1316194410                       # Energy for active background per rank (pJ)
system.mem_ctrls_1.preBackEnergy             69845280                       # Energy for precharge background per rank (pJ)
system.mem_ctrls_1.actPowerDownEnergy      2214428340                       # Energy for active power-down per rank (pJ)
system.mem_ctrls_1.prePowerDownEnergy       773061600                       # Energy for precharge power-down per rank (pJ)
system.mem_ctrls_1.selfRefreshEnergy       1393989120                       # Energy for self refresh per rank (pJ)
system.mem_ctrls_1.totalEnergy             7684885020                       # Total energy per rank (pJ)
system.mem_ctrls_1.averagePower            503.354412                       # Core power per rank (mW)
system.mem_ctrls_1.totalIdleTime          12181946625                       # Total Idle time Per DRAM Rank
system.mem_ctrls_1.memoryStateTime::IDLE     73630250                       # Time in different power states
system.mem_ctrls_1.memoryStateTime::REF     383478000                       # Time in different power states
system.mem_ctrls_1.memoryStateTime::SREF   5329608625                       # Time in different power states
system.mem_ctrls_1.memoryStateTime::PRE_PDN   2013276000                       # Time in different power states
system.mem_ctrls_1.memoryStateTime::ACT    2611264500                       # Time in different power states
system.mem_ctrls_1.memoryStateTime::ACT_PDN   4856086750                       # Time in different power states
system.pwrStateResidencyTicks::UNDEFINED  15267344125                       # Cumulative time (in ticks) in various power states
system.cpu0.branchPred.lookups                4142165                       # Number of BP lookups
system.cpu0.branchPred.condPredicted          4142165                       # Number of conditional branches predicted
system.cpu0.branchPred.condIncorrect            45247                       # Number of conditional branches incorrect
system.cpu0.branchPred.BTBLookups             3752374                       # Number of BTB lookups
system.cpu0.branchPred.BTBHits                      0                       # Number of BTB hits
system.cpu0.branchPred.BTBCorrect                   0                       # Number of correct BTB predictions (this stat may not work properly.
system.cpu0.branchPred.BTBHitPct             0.000000                       # BTB Hit Percentage
system.cpu0.branchPred.usedRAS                 274566                       # Number of times the RAS was used to get a target.
system.cpu0.branchPred.RASInCorrect               294                       # Number of incorrect RAS predictions.
system.cpu0.branchPred.indirectLookups        3752374                       # Number of indirect predictor lookups.
system.cpu0.branchPred.indirectHits           3084378                       # Number of indirect target hits.
system.cpu0.branchPred.indirectMisses          667996                       # Number of indirect misses.
system.cpu0.branchPredindirectMispredicted         1655                       # Number of mispredicted indirect branches.
system.cpu_voltage_domain.voltage                   1                       # Voltage in Volts
system.cpu_clk_domain.clock                       500                       # Clock period in ticks
system.cpu0.dtb.walker.pwrStateResidencyTicks::UNDEFINED  15267344125                       # Cumulative time (in ticks) in various power states
system.cpu0.dtb.rdAccesses                    5617157                       # TLB accesses on read requests
system.cpu0.dtb.wrAccesses                    1154941                       # TLB accesses on write requests
system.cpu0.dtb.rdMisses                         2238                       # TLB misses on read requests
system.cpu0.dtb.wrMisses                          777                       # TLB misses on write requests
system.cpu0.apic_clk_domain.clock                8000                       # Clock period in ticks
system.cpu0.interrupts.pwrStateResidencyTicks::UNDEFINED  15267344125                       # Cumulative time (in ticks) in various power states
system.cpu0.itb.walker.pwrStateResidencyTicks::UNDEFINED  15267344125                       # Cumulative time (in ticks) in various power states
system.cpu0.itb.rdAccesses                          0                       # TLB accesses on read requests
system.cpu0.itb.wrAccesses                    2371298                       # TLB accesses on write requests
system.cpu0.itb.rdMisses                            0                       # TLB misses on read requests
system.cpu0.itb.wrMisses                           75                       # TLB misses on write requests
system.cpu0.workload.numSyscalls                   10                       # Number of system calls
system.cpu0.pwrStateResidencyTicks::ON    15267344125                       # Cumulative time (in ticks) in various power states
system.cpu0.numCycles                        30534688                       # number of cpu cycles simulated
system.cpu0.numWorkItemsStarted                     0                       # number of work items this cpu started
system.cpu0.numWorkItemsCompleted                   0                       # number of work items this cpu completed
system.cpu0.fetch.icacheStallCycles           2405516                       # Number of cycles fetch is stalled on an Icache miss
system.cpu0.fetch.Insts                      28576275                       # Number of instructions fetch has processed
system.cpu0.fetch.Branches                    4142165                       # Number of branches that fetch encountered
system.cpu0.fetch.predictedBranches           3358944                       # Number of branches that fetch has predicted taken
system.cpu0.fetch.Cycles                     28050724                       # Number of cycles fetch has run and was not squashing or blocked
system.cpu0.fetch.SquashCycles                  90772                       # Number of cycles fetch has spent squashing
system.cpu0.fetch.MiscStallCycles                  74                       # Number of cycles fetch has spent waiting on interrupts, or bad addresses, or out of MSHRs
system.cpu0.fetch.PendingTrapStallCycles          400                       # Number of stall cycles due to pending traps
system.cpu0.fetch.IcacheWaitRetryStallCycles           33                       # Number of stall cycles due to full MSHR
system.cpu0.fetch.CacheLines                  2371230                       # Number of cache lines fetched
system.cpu0.fetch.IcacheSquashes                18896                       # Number of outstanding Icache misses that were squashed
system.cpu0.fetch.rateDist::samples          30502133                       # Number of instructions fetched each cycle (Total)
system.cpu0.fetch.rateDist::mean             1.641414                       # Number of instructions fetched each cycle (Total)
system.cpu0.fetch.rateDist::stdev            2.918174                       # Number of instructions fetched each cycle (Total)
system.cpu0.fetch.rateDist::underflows              0      0.00%      0.00% # Number of instructions fetched each cycle (Total)
system.cpu0.fetch.rateDist::0                21047785     69.00%     69.00% # Number of instructions fetched each cycle (Total)
system.cpu0.fetch.rateDist::1                 1720889      5.64%     74.65% # Number of instructions fetched each cycle (Total)
system.cpu0.fetch.rateDist::2                  878177      2.88%     77.53% # Number of instructions fetched each cycle (Total)
system.cpu0.fetch.rateDist::3                  470157      1.54%     79.07% # Number of instructions fetched each cycle (Total)
system.cpu0.fetch.rateDist::4                  579964      1.90%     80.97% # Number of instructions fetched each cycle (Total)
system.cpu0.fetch.rateDist::5                  739558      2.42%     83.39% # Number of instructions fetched each cycle (Total)
system.cpu0.fetch.rateDist::6                  474941      1.56%     84.95% # Number of instructions fetched each cycle (Total)
system.cpu0.fetch.rateDist::7                  413688      1.36%     86.31% # Number of instructions fetched each cycle (Total)
system.cpu0.fetch.rateDist::8                 4176974     13.69%    100.00% # Number of instructions fetched each cycle (Total)
system.cpu0.fetch.rateDist::overflows               0      0.00%    100.00% # Number of instructions fetched each cycle (Total)
system.cpu0.fetch.rateDist::min_value               0                       # Number of instructions fetched each cycle (Total)
system.cpu0.fetch.rateDist::max_value               8                       # Number of instructions fetched each cycle (Total)
system.cpu0.fetch.rateDist::total            30502133                       # Number of instructions fetched each cycle (Total)
system.cpu0.fetch.branchRate                 0.135654                       # Number of branch fetches per cycle
system.cpu0.fetch.rate                       0.935863                       # Number of inst fetches per cycle
system.cpu0.decode.IdleCycles                 2180318                       # Number of cycles decode is idle
system.cpu0.decode.BlockedCycles             21890187                       # Number of cycles decode is blocked
system.cpu0.decode.RunCycles                  3234291                       # Number of cycles decode is running
system.cpu0.decode.UnblockCycles              3151951                       # Number of cycles decode is unblocking
system.cpu0.decode.SquashCycles                 45386                       # Number of cycles decode is squashing
system.cpu0.decode.DecodedInsts              48607458                       # Number of instructions handled by decode
system.cpu0.rename.SquashCycles                 45386                       # Number of cycles rename is squashing
system.cpu0.rename.IdleCycles                 3380714                       # Number of cycles rename is idle
system.cpu0.rename.BlockCycles               12874370                       # Number of cycles rename is blocking
system.cpu0.rename.serializeStallCycles           745                       # count of cycles rename stalled for serializing inst
system.cpu0.rename.RunCycles                  5163564                       # Number of cycles rename is running
system.cpu0.rename.UnblockCycles              9037354                       # Number of cycles rename is unblocking
system.cpu0.rename.RenamedInsts              48405957                       # Number of instructions processed by rename
system.cpu0.rename.ROBFullEvents               773661                       # Number of times rename has blocked due to ROB full
system.cpu0.rename.IQFullEvents               4464609                       # Number of times rename has blocked due to IQ full
system.cpu0.rename.LQFullEvents                     8                       # Number of times rename has blocked due to LQ full
system.cpu0.rename.SQFullEvents               3013377                       # Number of times rename has blocked due to SQ full
system.cpu0.rename.RenamedOperands           62739040                       # Number of destination operands rename has renamed
system.cpu0.rename.RenameLookups            112857795                       # Number of register rename lookups that rename has made
system.cpu0.rename.int_rename_lookups        49121050                       # Number of integer rename lookups
system.cpu0.rename.fp_rename_lookups         28133959                       # Number of floating rename lookups
system.cpu0.rename.CommittedMaps             58304286                       # Number of HB maps that are committed
system.cpu0.rename.UndoneMaps                 4434599                       # Number of HB maps that are undone due to squashing
system.cpu0.rename.serializingInsts                38                       # count of serializing insts renamed
system.cpu0.rename.tempSerializingInsts            43                       # count of temporary serializing insts renamed
system.cpu0.rename.skidInsts                 16264683                       # count of insts added to the skid buffer
system.cpu0.memDep0.insertedLoads             5826726                       # Number of loads inserted to the mem dependence unit.
system.cpu0.memDep0.insertedStores            1158306                       # Number of stores inserted to the mem dependence unit.
system.cpu0.memDep0.conflictingLoads           161284                       # Number of conflicting loads.
system.cpu0.memDep0.conflictingStores           74933                       # Number of conflicting stores.
system.cpu0.iq.iqInstsAdded                  48154261                       # Number of instructions added to the IQ (excludes non-spec)
system.cpu0.iq.iqNonSpecInstsAdded                529                       # Number of non-speculative instructions added to the IQ
system.cpu0.iq.iqInstsIssued                 46159584                       # Number of instructions issued
system.cpu0.iq.iqSquashedInstsIssued              638                       # Number of squashed instructions issued
system.cpu0.iq.iqSquashedInstsExamined        3752104                       # Number of squashed instructions iterated over during squash; mainly for profiling
system.cpu0.iq.iqSquashedOperandsExamined      5413877                       # Number of squashed operands that are examined and possibly removed from graph
system.cpu0.iq.iqSquashedNonSpecRemoved           429                       # Number of squashed non-spec instructions that were removed
system.cpu0.iq.issued_per_cycle::samples     30502133                       # Number of insts issued each cycle
system.cpu0.iq.issued_per_cycle::mean        1.513323                       # Number of insts issued each cycle
system.cpu0.iq.issued_per_cycle::stdev       1.982352                       # Number of insts issued each cycle
system.cpu0.iq.issued_per_cycle::underflows            0      0.00%      0.00% # Number of insts issued each cycle
system.cpu0.iq.issued_per_cycle::0           15671589     51.38%     51.38% # Number of insts issued each cycle
system.cpu0.iq.issued_per_cycle::1            3415102     11.20%     62.57% # Number of insts issued each cycle
system.cpu0.iq.issued_per_cycle::2            2889644      9.47%     72.05% # Number of insts issued each cycle
system.cpu0.iq.issued_per_cycle::3            2995732      9.82%     81.87% # Number of insts issued each cycle
system.cpu0.iq.issued_per_cycle::4            2245803      7.36%     89.23% # Number of insts issued each cycle
system.cpu0.iq.issued_per_cycle::5            1299437      4.26%     93.49% # Number of insts issued each cycle
system.cpu0.iq.issued_per_cycle::6            1525710      5.00%     98.49% # Number of insts issued each cycle
system.cpu0.iq.issued_per_cycle::7             329587      1.08%     99.58% # Number of insts issued each cycle
system.cpu0.iq.issued_per_cycle::8             129529      0.42%    100.00% # Number of insts issued each cycle
system.cpu0.iq.issued_per_cycle::overflows            0      0.00%    100.00% # Number of insts issued each cycle
system.cpu0.iq.issued_per_cycle::min_value            0                       # Number of insts issued each cycle
system.cpu0.iq.issued_per_cycle::max_value            8                       # Number of insts issued each cycle
system.cpu0.iq.issued_per_cycle::total       30502133                       # Number of insts issued each cycle
system.cpu0.iq.fu_full::No_OpClass                  0      0.00%      0.00% # attempts to use FU when none available
system.cpu0.iq.fu_full::IntAlu                   2971      6.86%      6.86% # attempts to use FU when none available
system.cpu0.iq.fu_full::IntMult                     0      0.00%      6.86% # attempts to use FU when none available
system.cpu0.iq.fu_full::IntDiv                      0      0.00%      6.86% # attempts to use FU when none available
system.cpu0.iq.fu_full::FloatAdd                36679     84.68%     91.54% # attempts to use FU when none available
system.cpu0.iq.fu_full::FloatCmp                    0      0.00%     91.54% # attempts to use FU when none available
system.cpu0.iq.fu_full::FloatCvt                    0      0.00%     91.54% # attempts to use FU when none available
system.cpu0.iq.fu_full::FloatMult                   0      0.00%     91.54% # attempts to use FU when none available
system.cpu0.iq.fu_full::FloatMultAcc                0      0.00%     91.54% # attempts to use FU when none available
system.cpu0.iq.fu_full::FloatDiv                    0      0.00%     91.54% # attempts to use FU when none available
system.cpu0.iq.fu_full::FloatMisc                   0      0.00%     91.54% # attempts to use FU when none available
system.cpu0.iq.fu_full::FloatSqrt                   0      0.00%     91.54% # attempts to use FU when none available
system.cpu0.iq.fu_full::SimdAdd                     0      0.00%     91.54% # attempts to use FU when none available
system.cpu0.iq.fu_full::SimdAddAcc                  0      0.00%     91.54% # attempts to use FU when none available
system.cpu0.iq.fu_full::SimdAlu                     0      0.00%     91.54% # attempts to use FU when none available
system.cpu0.iq.fu_full::SimdCmp                     0      0.00%     91.54% # attempts to use FU when none available
system.cpu0.iq.fu_full::SimdCvt                     0      0.00%     91.54% # attempts to use FU when none available
system.cpu0.iq.fu_full::SimdMisc                    0      0.00%     91.54% # attempts to use FU when none available
system.cpu0.iq.fu_full::SimdMult                    0      0.00%     91.54% # attempts to use FU when none available
system.cpu0.iq.fu_full::SimdMultAcc                 0      0.00%     91.54% # attempts to use FU when none available
system.cpu0.iq.fu_full::SimdShift                   0      0.00%     91.54% # attempts to use FU when none available
system.cpu0.iq.fu_full::SimdShiftAcc                0      0.00%     91.54% # attempts to use FU when none available
system.cpu0.iq.fu_full::SimdSqrt                    0      0.00%     91.54% # attempts to use FU when none available
system.cpu0.iq.fu_full::SimdFloatAdd                0      0.00%     91.54% # attempts to use FU when none available
system.cpu0.iq.fu_full::SimdFloatAlu                0      0.00%     91.54% # attempts to use FU when none available
system.cpu0.iq.fu_full::SimdFloatCmp                0      0.00%     91.54% # attempts to use FU when none available
system.cpu0.iq.fu_full::SimdFloatCvt                0      0.00%     91.54% # attempts to use FU when none available
system.cpu0.iq.fu_full::SimdFloatDiv                0      0.00%     91.54% # attempts to use FU when none available
system.cpu0.iq.fu_full::SimdFloatMisc               0      0.00%     91.54% # attempts to use FU when none available
system.cpu0.iq.fu_full::SimdFloatMult               0      0.00%     91.54% # attempts to use FU when none available
system.cpu0.iq.fu_full::SimdFloatMultAcc            0      0.00%     91.54% # attempts to use FU when none available
system.cpu0.iq.fu_full::SimdFloatSqrt               0      0.00%     91.54% # attempts to use FU when none available
system.cpu0.iq.fu_full::MemRead                  2114      4.88%     96.42% # attempts to use FU when none available
system.cpu0.iq.fu_full::MemWrite                 1490      3.44%     99.86% # attempts to use FU when none available
system.cpu0.iq.fu_full::FloatMemRead                3      0.01%     99.87% # attempts to use FU when none available
system.cpu0.iq.fu_full::FloatMemWrite              58      0.13%    100.00% # attempts to use FU when none available
system.cpu0.iq.fu_full::IprAccess                   0      0.00%    100.00% # attempts to use FU when none available
system.cpu0.iq.fu_full::InstPrefetch                0      0.00%    100.00% # attempts to use FU when none available
system.cpu0.iq.FU_type_0::No_OpClass            20437      0.04%      0.04% # Type of FU issued
system.cpu0.iq.FU_type_0::IntAlu             30744421     66.60%     66.65% # Type of FU issued
system.cpu0.iq.FU_type_0::IntMult                5167      0.01%     66.66% # Type of FU issued
system.cpu0.iq.FU_type_0::IntDiv                   61      0.00%     66.66% # Type of FU issued
system.cpu0.iq.FU_type_0::FloatAdd            8625386     18.69%     85.35% # Type of FU issued
system.cpu0.iq.FU_type_0::FloatCmp                  0      0.00%     85.35% # Type of FU issued
system.cpu0.iq.FU_type_0::FloatCvt                  0      0.00%     85.35% # Type of FU issued
system.cpu0.iq.FU_type_0::FloatMult                 0      0.00%     85.35% # Type of FU issued
system.cpu0.iq.FU_type_0::FloatMultAcc              0      0.00%     85.35% # Type of FU issued
system.cpu0.iq.FU_type_0::FloatDiv                  0      0.00%     85.35% # Type of FU issued
system.cpu0.iq.FU_type_0::FloatMisc                 0      0.00%     85.35% # Type of FU issued
system.cpu0.iq.FU_type_0::FloatSqrt                 0      0.00%     85.35% # Type of FU issued
system.cpu0.iq.FU_type_0::SimdAdd                   0      0.00%     85.35% # Type of FU issued
system.cpu0.iq.FU_type_0::SimdAddAcc                0      0.00%     85.35% # Type of FU issued
system.cpu0.iq.FU_type_0::SimdAlu                   0      0.00%     85.35% # Type of FU issued
system.cpu0.iq.FU_type_0::SimdCmp                   0      0.00%     85.35% # Type of FU issued
system.cpu0.iq.FU_type_0::SimdCvt                   0      0.00%     85.35% # Type of FU issued
system.cpu0.iq.FU_type_0::SimdMisc                  0      0.00%     85.35% # Type of FU issued
system.cpu0.iq.FU_type_0::SimdMult                  0      0.00%     85.35% # Type of FU issued
system.cpu0.iq.FU_type_0::SimdMultAcc               0      0.00%     85.35% # Type of FU issued
system.cpu0.iq.FU_type_0::SimdShift                 0      0.00%     85.35% # Type of FU issued
system.cpu0.iq.FU_type_0::SimdShiftAcc              0      0.00%     85.35% # Type of FU issued
system.cpu0.iq.FU_type_0::SimdSqrt                  0      0.00%     85.35% # Type of FU issued
system.cpu0.iq.FU_type_0::SimdFloatAdd              0      0.00%     85.35% # Type of FU issued
system.cpu0.iq.FU_type_0::SimdFloatAlu              0      0.00%     85.35% # Type of FU issued
system.cpu0.iq.FU_type_0::SimdFloatCmp              0      0.00%     85.35% # Type of FU issued
system.cpu0.iq.FU_type_0::SimdFloatCvt              0      0.00%     85.35% # Type of FU issued
system.cpu0.iq.FU_type_0::SimdFloatDiv              0      0.00%     85.35% # Type of FU issued
system.cpu0.iq.FU_type_0::SimdFloatMisc             0      0.00%     85.35% # Type of FU issued
system.cpu0.iq.FU_type_0::SimdFloatMult             0      0.00%     85.35% # Type of FU issued
system.cpu0.iq.FU_type_0::SimdFloatMultAcc            0      0.00%     85.35% # Type of FU issued
system.cpu0.iq.FU_type_0::SimdFloatSqrt             0      0.00%     85.35% # Type of FU issued
system.cpu0.iq.FU_type_0::MemRead             3013234      6.53%     91.87% # Type of FU issued
system.cpu0.iq.FU_type_0::MemWrite             737845      1.60%     93.47% # Type of FU issued
system.cpu0.iq.FU_type_0::FloatMemRead        2595231      5.62%     99.09% # Type of FU issued
system.cpu0.iq.FU_type_0::FloatMemWrite        417802      0.91%    100.00% # Type of FU issued
system.cpu0.iq.FU_type_0::IprAccess                 0      0.00%    100.00% # Type of FU issued
system.cpu0.iq.FU_type_0::InstPrefetch              0      0.00%    100.00% # Type of FU issued
system.cpu0.iq.FU_type_0::total              46159584                       # Type of FU issued
system.cpu0.iq.rate                          1.511710                       # Inst issue rate
system.cpu0.iq.fu_busy_cnt                      43315                       # FU busy when requested
system.cpu0.iq.fu_busy_rate                  0.000938                       # FU busy rate (busy events/executed inst)
system.cpu0.iq.int_inst_queue_reads          94488304                       # Number of integer instruction queue reads
system.cpu0.iq.int_inst_queue_writes         33478865                       # Number of integer instruction queue writes
system.cpu0.iq.int_inst_queue_wakeup_accesses     31955325                       # Number of integer instruction queue wakeup accesses
system.cpu0.iq.fp_inst_queue_reads           28376952                       # Number of floating instruction queue reads
system.cpu0.iq.fp_inst_queue_writes          18428119                       # Number of floating instruction queue writes
system.cpu0.iq.fp_inst_queue_wakeup_accesses     14118696                       # Number of floating instruction queue wakeup accesses
system.cpu0.iq.vec_inst_queue_reads                 0                       # Number of vector instruction queue reads
system.cpu0.iq.vec_inst_queue_writes                0                       # Number of vector instruction queue writes
system.cpu0.iq.vec_inst_queue_wakeup_accesses            0                       # Number of vector instruction queue wakeup accesses
system.cpu0.iq.int_alu_accesses              31975629                       # Number of integer alu accesses
system.cpu0.iq.fp_alu_accesses               14206833                       # Number of floating point alu accesses
system.cpu0.iq.vec_alu_accesses                     0                       # Number of vector alu accesses
system.cpu0.iew.lsq.thread0.forwLoads          159105                       # Number of loads that had data forwarded from stores
system.cpu0.iew.lsq.thread0.invAddrLoads            0                       # Number of loads ignored due to an invalid address
system.cpu0.iew.lsq.thread0.squashedLoads       506732                       # Number of loads squashed
system.cpu0.iew.lsq.thread0.ignoredResponses           21                       # Number of memory responses ignored because the instruction is squashed
system.cpu0.iew.lsq.thread0.memOrderViolation           96                       # Number of memory ordering violations
system.cpu0.iew.lsq.thread0.squashedStores         5797                       # Number of stores squashed
system.cpu0.iew.lsq.thread0.invAddrSwpfs            0                       # Number of software prefetches ignored due to an invalid address
system.cpu0.iew.lsq.thread0.blockedLoads            0                       # Number of blocked loads due to partial load-store forwarding
system.cpu0.iew.lsq.thread0.rescheduledLoads            7                       # Number of loads that were rescheduled
system.cpu0.iew.lsq.thread0.cacheBlocked          645                       # Number of times an access to memory failed due to the cache being blocked
system.cpu0.iew.iewIdleCycles                       0                       # Number of cycles IEW is idle
system.cpu0.iew.iewSquashCycles                 45386                       # Number of cycles IEW is squashing
system.cpu0.iew.iewBlockCycles                9214176                       # Number of cycles IEW is blocking
system.cpu0.iew.iewUnblockCycles              2217601                       # Number of cycles IEW is unblocking
system.cpu0.iew.iewDispatchedInsts           48154790                       # Number of instructions dispatched to IQ
system.cpu0.iew.iewDispSquashedInsts               70                       # Number of squashed instructions skipped by dispatch
system.cpu0.iew.iewDispLoadInsts              5826726                       # Number of dispatched load instructions
system.cpu0.iew.iewDispStoreInsts             1158306                       # Number of dispatched store instructions
system.cpu0.iew.iewDispNonSpecInsts               201                       # Number of dispatched non-speculative instructions
system.cpu0.iew.iewIQFullEvents                 96883                       # Number of times the IQ has become full, causing a stall
system.cpu0.iew.iewLSQFullEvents              2056276                       # Number of times the LSQ has become full, causing a stall
system.cpu0.iew.memOrderViolationEvents            96                       # Number of memory order violations
system.cpu0.iew.predictedTakenIncorrect         26831                       # Number of branches that were predicted taken incorrectly
system.cpu0.iew.predictedNotTakenIncorrect        19078                       # Number of branches that were predicted not taken incorrectly
system.cpu0.iew.branchMispredicts               45909                       # Number of branch mispredicts detected at execute
system.cpu0.iew.iewExecutedInsts             46084910                       # Number of executed instructions
system.cpu0.iew.iewExecLoadInsts              5607223                       # Number of load instructions executed
system.cpu0.iew.iewExecSquashedInsts            74676                       # Number of squashed instructions skipped in execute
system.cpu0.iew.exec_swp                            0                       # number of swp insts executed
system.cpu0.iew.exec_nop                            0                       # number of nop insts executed
system.cpu0.iew.exec_refs                     6762154                       # number of memory reference insts executed
system.cpu0.iew.exec_branches                 3922551                       # Number of branches executed
system.cpu0.iew.exec_stores                   1154931                       # Number of stores executed
system.cpu0.iew.exec_rate                    1.509264                       # Inst execution rate
system.cpu0.iew.wb_sent                      46076791                       # cumulative count of insts sent to commit
system.cpu0.iew.wb_count                     46074021                       # cumulative count of insts written-back
system.cpu0.iew.wb_producers                 35528568                       # num instructions producing a value
system.cpu0.iew.wb_consumers                 57509069                       # num instructions consuming a value
system.cpu0.iew.wb_rate                      1.508908                       # insts written-back per cycle
system.cpu0.iew.wb_fanout                    0.617791                       # average fanout of values written-back
system.cpu0.commit.commitSquashedInsts        3752131                       # The number of squashed insts skipped by commit
system.cpu0.commit.commitNonSpecStalls            100                       # The number of times commit has been forced to stall to communicate backwards
system.cpu0.commit.branchMispredicts            45307                       # The number of times a branch was mispredicted
system.cpu0.commit.committed_per_cycle::samples     30016380                       # Number of insts commited each cycle
system.cpu0.commit.committed_per_cycle::mean     1.479281                       # Number of insts commited each cycle
system.cpu0.commit.committed_per_cycle::stdev     2.392796                       # Number of insts commited each cycle
system.cpu0.commit.committed_per_cycle::underflows            0      0.00%      0.00% # Number of insts commited each cycle
system.cpu0.commit.committed_per_cycle::0     18504636     61.65%     61.65% # Number of insts commited each cycle
system.cpu0.commit.committed_per_cycle::1      3246641     10.82%     72.46% # Number of insts commited each cycle
system.cpu0.commit.committed_per_cycle::2       513634      1.71%     74.18% # Number of insts commited each cycle
system.cpu0.commit.committed_per_cycle::3      1218870      4.06%     78.24% # Number of insts commited each cycle
system.cpu0.commit.committed_per_cycle::4      2293764      7.64%     85.88% # Number of insts commited each cycle
system.cpu0.commit.committed_per_cycle::5      2028414      6.76%     92.64% # Number of insts commited each cycle
system.cpu0.commit.committed_per_cycle::6       159436      0.53%     93.17% # Number of insts commited each cycle
system.cpu0.commit.committed_per_cycle::7       209492      0.70%     93.87% # Number of insts commited each cycle
system.cpu0.commit.committed_per_cycle::8      1841493      6.13%    100.00% # Number of insts commited each cycle
system.cpu0.commit.committed_per_cycle::overflows            0      0.00%    100.00% # Number of insts commited each cycle
system.cpu0.commit.committed_per_cycle::min_value            0                       # Number of insts commited each cycle
system.cpu0.commit.committed_per_cycle::max_value            8                       # Number of insts commited each cycle
system.cpu0.commit.committed_per_cycle::total     30016380                       # Number of insts commited each cycle
system.cpu0.commit.committedInsts            25099044                       # Number of instructions committed
system.cpu0.commit.committedOps              44402649                       # Number of ops (including micro ops) committed
system.cpu0.commit.swp_count                        0                       # Number of s/w prefetches committed
system.cpu0.commit.refs                       6472507                       # Number of memory references committed
system.cpu0.commit.loads                      5319988                       # Number of loads committed
system.cpu0.commit.membars                         60                       # Number of memory barriers committed
system.cpu0.commit.branches                   3883216                       # Number of branches committed
system.cpu0.commit.vec_insts                        0                       # Number of committed Vector instructions.
system.cpu0.commit.fp_insts                  13041349                       # Number of committed floating point instructions.
system.cpu0.commit.int_insts                 34953125                       # Number of committed integer instructions.
system.cpu0.commit.function_calls              237139                       # Number of function calls committed.
system.cpu0.commit.op_class_0::No_OpClass        19652      0.04%      0.04% # Class of committed instruction
system.cpu0.commit.op_class_0::IntAlu        29817456     67.15%     67.20% # Class of committed instruction
system.cpu0.commit.op_class_0::IntMult           5156      0.01%     67.21% # Class of committed instruction
system.cpu0.commit.op_class_0::IntDiv              36      0.00%     67.21% # Class of committed instruction
system.cpu0.commit.op_class_0::FloatAdd       8087842     18.21%     85.42% # Class of committed instruction
system.cpu0.commit.op_class_0::FloatCmp             0      0.00%     85.42% # Class of committed instruction
system.cpu0.commit.op_class_0::FloatCvt             0      0.00%     85.42% # Class of committed instruction
system.cpu0.commit.op_class_0::FloatMult            0      0.00%     85.42% # Class of committed instruction
system.cpu0.commit.op_class_0::FloatMultAcc            0      0.00%     85.42% # Class of committed instruction
system.cpu0.commit.op_class_0::FloatDiv             0      0.00%     85.42% # Class of committed instruction
system.cpu0.commit.op_class_0::FloatMisc            0      0.00%     85.42% # Class of committed instruction
system.cpu0.commit.op_class_0::FloatSqrt            0      0.00%     85.42% # Class of committed instruction
system.cpu0.commit.op_class_0::SimdAdd              0      0.00%     85.42% # Class of committed instruction
system.cpu0.commit.op_class_0::SimdAddAcc            0      0.00%     85.42% # Class of committed instruction
system.cpu0.commit.op_class_0::SimdAlu              0      0.00%     85.42% # Class of committed instruction
system.cpu0.commit.op_class_0::SimdCmp              0      0.00%     85.42% # Class of committed instruction
system.cpu0.commit.op_class_0::SimdCvt              0      0.00%     85.42% # Class of committed instruction
system.cpu0.commit.op_class_0::SimdMisc             0      0.00%     85.42% # Class of committed instruction
system.cpu0.commit.op_class_0::SimdMult             0      0.00%     85.42% # Class of committed instruction
system.cpu0.commit.op_class_0::SimdMultAcc            0      0.00%     85.42% # Class of committed instruction
system.cpu0.commit.op_class_0::SimdShift            0      0.00%     85.42% # Class of committed instruction
system.cpu0.commit.op_class_0::SimdShiftAcc            0      0.00%     85.42% # Class of committed instruction
system.cpu0.commit.op_class_0::SimdSqrt             0      0.00%     85.42% # Class of committed instruction
system.cpu0.commit.op_class_0::SimdFloatAdd            0      0.00%     85.42% # Class of committed instruction
system.cpu0.commit.op_class_0::SimdFloatAlu            0      0.00%     85.42% # Class of committed instruction
system.cpu0.commit.op_class_0::SimdFloatCmp            0      0.00%     85.42% # Class of committed instruction
system.cpu0.commit.op_class_0::SimdFloatCvt            0      0.00%     85.42% # Class of committed instruction
system.cpu0.commit.op_class_0::SimdFloatDiv            0      0.00%     85.42% # Class of committed instruction
system.cpu0.commit.op_class_0::SimdFloatMisc            0      0.00%     85.42% # Class of committed instruction
system.cpu0.commit.op_class_0::SimdFloatMult            0      0.00%     85.42% # Class of committed instruction
system.cpu0.commit.op_class_0::SimdFloatMultAcc            0      0.00%     85.42% # Class of committed instruction
system.cpu0.commit.op_class_0::SimdFloatSqrt            0      0.00%     85.42% # Class of committed instruction
system.cpu0.commit.op_class_0::MemRead        2994358      6.74%     92.17% # Class of committed instruction
system.cpu0.commit.op_class_0::MemWrite        734864      1.66%     93.82% # Class of committed instruction
system.cpu0.commit.op_class_0::FloatMemRead      2325630      5.24%     99.06% # Class of committed instruction
system.cpu0.commit.op_class_0::FloatMemWrite       417655      0.94%    100.00% # Class of committed instruction
system.cpu0.commit.op_class_0::IprAccess            0      0.00%    100.00% # Class of committed instruction
system.cpu0.commit.op_class_0::InstPrefetch            0      0.00%    100.00% # Class of committed instruction
system.cpu0.commit.op_class_0::total         44402649                       # Class of committed instruction
system.cpu0.commit.bw_lim_events              1841493                       # number cycles where commit BW limit reached
system.cpu0.rob.rob_reads                    76329667                       # The number of ROB reads
system.cpu0.rob.rob_writes                   96795548                       # The number of ROB writes
system.cpu0.timesIdled                            270                       # Number of times that the entire CPU went into an idle state and unscheduled itself
system.cpu0.idleCycles                          32555                       # Total number of cycles that the CPU has spent unscheduled due to idling
system.cpu0.committedInsts                   25099044                       # Number of Instructions Simulated
system.cpu0.committedOps                     44402649                       # Number of Ops (including micro ops) Simulated
system.cpu0.cpi                              1.216568                       # CPI: Cycles Per Instruction
system.cpu0.cpi_total                        1.216568                       # CPI: Total CPI of All Threads
system.cpu0.ipc                              0.821985                       # IPC: Instructions Per Cycle
system.cpu0.ipc_total                        0.821985                       # IPC: Total IPC of All Threads
system.cpu0.int_regfile_reads                47610026                       # number of integer regfile reads
system.cpu0.int_regfile_writes               27792004                       # number of integer regfile writes
system.cpu0.fp_regfile_reads                 24492858                       # number of floating regfile reads
system.cpu0.fp_regfile_writes                12483030                       # number of floating regfile writes
system.cpu0.cc_regfile_reads                 18537694                       # number of cc regfile reads
system.cpu0.cc_regfile_writes                19739550                       # number of cc regfile writes
system.cpu0.misc_regfile_reads               15982854                       # number of misc regfile reads
system.cpu0.dcache.tags.pwrStateResidencyTicks::UNDEFINED  15267344125                       # Cumulative time (in ticks) in various power states
system.cpu0.dcache.tags.replacements           171563                       # number of replacements
system.cpu0.dcache.tags.tagsinuse                 512                       # Cycle average of tags in use
system.cpu0.dcache.tags.total_refs          261166679                       # Total number of references to valid blocks.
system.cpu0.dcache.tags.sampled_refs           171563                       # Sample count of references to valid blocks.
system.cpu0.dcache.tags.avg_refs          1522.278574                       # Average number of references to valid blocks.
system.cpu0.dcache.tags.warmup_cycle                0                       # Cycle when the warmup percentage was hit.
system.cpu0.dcache.tags.occ_blocks::cpu0.data          512                       # Average occupied blocks per requestor
system.cpu0.dcache.tags.occ_percent::cpu0.data            1                       # Average percentage of cache occupancy
system.cpu0.dcache.tags.occ_percent::total            1                       # Average percentage of cache occupancy
system.cpu0.dcache.tags.occ_task_id_blocks::1024          512                       # Occupied blocks per task id
system.cpu0.dcache.tags.age_task_id_blocks_1024::0          176                       # Occupied blocks per task id
system.cpu0.dcache.tags.age_task_id_blocks_1024::1          336                       # Occupied blocks per task id
system.cpu0.dcache.tags.occ_task_id_percent::1024            1                       # Percentage of cache occupancy per task id
system.cpu0.dcache.tags.tag_accesses         26610599                       # Number of tag accesses
system.cpu0.dcache.tags.data_accesses        26610599                       # Number of data accesses
system.cpu0.dcache.pwrStateResidencyTicks::UNDEFINED  15267344125                       # Cumulative time (in ticks) in various power states
system.cpu0.dcache.ReadReq_hits::cpu0.data      3946655                       # number of ReadReq hits
system.cpu0.dcache.ReadReq_hits::total        3946655                       # number of ReadReq hits
system.cpu0.dcache.WriteReq_hits::cpu0.data      1107853                       # number of WriteReq hits
system.cpu0.dcache.WriteReq_hits::total       1107853                       # number of WriteReq hits
system.cpu0.dcache.demand_hits::cpu0.data      5054508                       # number of demand (read+write) hits
system.cpu0.dcache.demand_hits::total         5054508                       # number of demand (read+write) hits
system.cpu0.dcache.overall_hits::cpu0.data      5054508                       # number of overall hits
system.cpu0.dcache.overall_hits::total        5054508                       # number of overall hits
system.cpu0.dcache.ReadReq_misses::cpu0.data      1510581                       # number of ReadReq misses
system.cpu0.dcache.ReadReq_misses::total      1510581                       # number of ReadReq misses
system.cpu0.dcache.WriteReq_misses::cpu0.data        44670                       # number of WriteReq misses
system.cpu0.dcache.WriteReq_misses::total        44670                       # number of WriteReq misses
system.cpu0.dcache.demand_misses::cpu0.data      1555251                       # number of demand (read+write) misses
system.cpu0.dcache.demand_misses::total       1555251                       # number of demand (read+write) misses
system.cpu0.dcache.overall_misses::cpu0.data      1555251                       # number of overall misses
system.cpu0.dcache.overall_misses::total      1555251                       # number of overall misses
system.cpu0.dcache.ReadReq_miss_latency::cpu0.data 117963242000                       # number of ReadReq miss cycles
system.cpu0.dcache.ReadReq_miss_latency::total 117963242000                       # number of ReadReq miss cycles
system.cpu0.dcache.WriteReq_miss_latency::cpu0.data   2417685000                       # number of WriteReq miss cycles
system.cpu0.dcache.WriteReq_miss_latency::total   2417685000                       # number of WriteReq miss cycles
system.cpu0.dcache.demand_miss_latency::cpu0.data 120380927000                       # number of demand (read+write) miss cycles
system.cpu0.dcache.demand_miss_latency::total 120380927000                       # number of demand (read+write) miss cycles
system.cpu0.dcache.overall_miss_latency::cpu0.data 120380927000                       # number of overall miss cycles
system.cpu0.dcache.overall_miss_latency::total 120380927000                       # number of overall miss cycles
system.cpu0.dcache.ReadReq_accesses::cpu0.data      5457236                       # number of ReadReq accesses(hits+misses)
system.cpu0.dcache.ReadReq_accesses::total      5457236                       # number of ReadReq accesses(hits+misses)
system.cpu0.dcache.WriteReq_accesses::cpu0.data      1152523                       # number of WriteReq accesses(hits+misses)
system.cpu0.dcache.WriteReq_accesses::total      1152523                       # number of WriteReq accesses(hits+misses)
system.cpu0.dcache.demand_accesses::cpu0.data      6609759                       # number of demand (read+write) accesses
system.cpu0.dcache.demand_accesses::total      6609759                       # number of demand (read+write) accesses
[...]
system.l2.ReadExReq_avg_miss_latency::total 86988.881023                       # average ReadExReq miss latency
system.l2.ReadCleanReq_avg_miss_latency::cpu0.inst 110925.149701                       # average ReadCleanReq miss latency
system.l2.ReadCleanReq_avg_miss_latency::total 110925.149701                       # average ReadCleanReq miss latency
system.l2.ReadSharedReq_avg_miss_latency::cpu0.data 92002.612262                       # average ReadSharedReq miss latency
system.l2.ReadSharedReq_avg_miss_latency::total 92002.612262                       # average ReadSharedReq miss latency
system.l2.demand_avg_miss_latency::cpu0.inst 110925.149701                       # average overall miss latency
system.l2.demand_avg_miss_latency::cpu0.data 91183.015079                       # average overall miss latency
system.l2.demand_avg_miss_latency::total 91227.801588                       # average overall miss latency
system.l2.overall_avg_miss_latency::cpu0.inst 110925.149701                       # average overall miss latency
system.l2.overall_avg_miss_latency::cpu0.data 91183.015079                       # average overall miss latency
system.l2.overall_avg_miss_latency::total 91227.801588                       # average overall miss latency
system.l2.blocked_cycles::no_mshrs                  0                       # number of cycles access was blocked
system.l2.blocked_cycles::no_targets                0                       # number of cycles access was blocked
system.l2.blocked::no_mshrs                         0                       # number of cycles access was blocked
system.l2.blocked::no_targets                       0                       # number of cycles access was blocked
system.l2.avg_blocked_cycles::no_mshrs            nan                       # average number of cycles each access was blocked
system.l2.avg_blocked_cycles::no_targets          nan                       # average number of cycles each access was blocked
system.l2.writebacks::writebacks               139871                       # number of writebacks
system.l2.writebacks::total                    139871                       # number of writebacks
system.l2.CleanEvict_mshr_misses::writebacks          149                       # number of CleanEvict MSHR misses
system.l2.CleanEvict_mshr_misses::total           149                       # number of CleanEvict MSHR misses
system.l2.ReadExReq_mshr_misses::cpu0.data        24013                       # number of ReadExReq MSHR misses
system.l2.ReadExReq_mshr_misses::total          24013                       # number of ReadExReq MSHR misses
system.l2.ReadCleanReq_mshr_misses::cpu0.inst          334                       # number of ReadCleanReq MSHR misses
system.l2.ReadCleanReq_mshr_misses::total          334                       # number of ReadCleanReq MSHR misses
system.l2.ReadSharedReq_mshr_misses::cpu0.data       122882                       # number of ReadSharedReq MSHR misses
system.l2.ReadSharedReq_mshr_misses::total       122882                       # number of ReadSharedReq MSHR misses
system.l2.demand_mshr_misses::cpu0.inst           334                       # number of demand (read+write) MSHR misses
system.l2.demand_mshr_misses::cpu0.data        146895                       # number of demand (read+write) MSHR misses
system.l2.demand_mshr_misses::total            147229                       # number of demand (read+write) MSHR misses
system.l2.overall_mshr_misses::cpu0.inst          334                       # number of overall MSHR misses
system.l2.overall_mshr_misses::cpu0.data       146895                       # number of overall MSHR misses
system.l2.overall_mshr_misses::total           147229                       # number of overall MSHR misses
system.l2.ReadExReq_mshr_miss_latency::cpu0.data   1848734000                       # number of ReadExReq MSHR miss cycles
system.l2.ReadExReq_mshr_miss_latency::total   1848734000                       # number of ReadExReq MSHR miss cycles
system.l2.ReadCleanReq_mshr_miss_latency::cpu0.inst     33709000                       # number of ReadCleanReq MSHR miss cycles
system.l2.ReadCleanReq_mshr_miss_latency::total     33709000                       # number of ReadCleanReq MSHR miss cycles
system.l2.ReadSharedReq_mshr_miss_latency::cpu0.data  10076665000                       # number of ReadSharedReq MSHR miss cycles
system.l2.ReadSharedReq_mshr_miss_latency::total  10076665000                       # number of ReadSharedReq MSHR miss cycles
system.l2.demand_mshr_miss_latency::cpu0.inst     33709000                       # number of demand (read+write) MSHR miss cycles
system.l2.demand_mshr_miss_latency::cpu0.data  11925399000                       # number of demand (read+write) MSHR miss cycles
system.l2.demand_mshr_miss_latency::total  11959108000                       # number of demand (read+write) MSHR miss cycles
system.l2.overall_mshr_miss_latency::cpu0.inst     33709000                       # number of overall MSHR miss cycles
system.l2.overall_mshr_miss_latency::cpu0.data  11925399000                       # number of overall MSHR miss cycles
system.l2.overall_mshr_miss_latency::total  11959108000                       # number of overall MSHR miss cycles
system.l2.CleanEvict_mshr_miss_rate::writebacks          inf                       # mshr miss rate for CleanEvict accesses
system.l2.CleanEvict_mshr_miss_rate::total          inf                       # mshr miss rate for CleanEvict accesses
system.l2.ReadExReq_mshr_miss_rate::cpu0.data     0.537649                       # mshr miss rate for ReadExReq accesses
system.l2.ReadExReq_mshr_miss_rate::total     0.537649                       # mshr miss rate for ReadExReq accesses
system.l2.ReadCleanReq_mshr_miss_rate::cpu0.inst     0.549342                       # mshr miss rate for ReadCleanReq accesses
system.l2.ReadCleanReq_mshr_miss_rate::total     0.549342                       # mshr miss rate for ReadCleanReq accesses
system.l2.ReadSharedReq_mshr_miss_rate::cpu0.data     0.968322                       # mshr miss rate for ReadSharedReq accesses
system.l2.ReadSharedReq_mshr_miss_rate::total     0.968322                       # mshr miss rate for ReadSharedReq accesses
system.l2.demand_mshr_miss_rate::cpu0.inst     0.549342                       # mshr miss rate for demand accesses
system.l2.demand_mshr_miss_rate::cpu0.data     0.856206                       # mshr miss rate for demand accesses
system.l2.demand_mshr_miss_rate::total       0.855122                       # mshr miss rate for demand accesses
system.l2.overall_mshr_miss_rate::cpu0.inst     0.549342                       # mshr miss rate for overall accesses
system.l2.overall_mshr_miss_rate::cpu0.data     0.856206                       # mshr miss rate for overall accesses
system.l2.overall_mshr_miss_rate::total      0.855122                       # mshr miss rate for overall accesses
system.l2.ReadExReq_avg_mshr_miss_latency::cpu0.data 76988.881023                       # average ReadExReq mshr miss latency
system.l2.ReadExReq_avg_mshr_miss_latency::total 76988.881023                       # average ReadExReq mshr miss latency
system.l2.ReadCleanReq_avg_mshr_miss_latency::cpu0.inst 100925.149701                       # average ReadCleanReq mshr miss latency
system.l2.ReadCleanReq_avg_mshr_miss_latency::total 100925.149701                       # average ReadCleanReq mshr miss latency
system.l2.ReadSharedReq_avg_mshr_miss_latency::cpu0.data 82002.775020                       # average ReadSharedReq mshr miss latency
system.l2.ReadSharedReq_avg_mshr_miss_latency::total 82002.775020                       # average ReadSharedReq mshr miss latency
system.l2.demand_avg_mshr_miss_latency::cpu0.inst 100925.149701                       # average overall mshr miss latency
system.l2.demand_avg_mshr_miss_latency::cpu0.data 81183.151230                       # average overall mshr miss latency
system.l2.demand_avg_mshr_miss_latency::total 81227.937431                       # average overall mshr miss latency
system.l2.overall_avg_mshr_miss_latency::cpu0.inst 100925.149701                       # average overall mshr miss latency
system.l2.overall_avg_mshr_miss_latency::cpu0.data 81183.151230                       # average overall mshr miss latency
system.l2.overall_avg_mshr_miss_latency::total 81227.937431                       # average overall mshr miss latency
system.membus.snoop_filter.tot_requests        294625                       # Total number of requests made to the snoop filter.
system.membus.snoop_filter.hit_single_requests       147396                       # Number of requests hitting in the snoop filter with a single holder of the requested data.
system.membus.snoop_filter.hit_multi_requests            0                       # Number of requests hitting in the snoop filter with multiple (>1) holders of the requested data.
system.membus.snoop_filter.tot_snoops               0                       # Total number of snoops made to the snoop filter.
system.membus.snoop_filter.hit_single_snoops            0                       # Number of snoops hitting in the snoop filter with a single holder of the requested data.
system.membus.snoop_filter.hit_multi_snoops            0                       # Number of snoops hitting in the snoop filter with multiple (>1) holders of the requested data.
system.membus.pwrStateResidencyTicks::UNDEFINED  15267344125                       # Cumulative time (in ticks) in various power states
system.membus.trans_dist::ReadResp             123214                       # Transaction distribution
system.membus.trans_dist::WritebackDirty       139871                       # Transaction distribution
system.membus.trans_dist::CleanEvict             7525                       # Transaction distribution
system.membus.trans_dist::ReadExReq             24013                       # Transaction distribution
system.membus.trans_dist::ReadExResp            24013                       # Transaction distribution
system.membus.trans_dist::ReadSharedReq        123216                       # Transaction distribution
system.membus.pkt_count_system.l2.mem_side::system.mem_ctrls.port       441852                       # Packet count per connected master and slave (bytes)
system.membus.pkt_count_system.l2.mem_side::total       441852                       # Packet count per connected master and slave (bytes)
system.membus.pkt_count::total                 441852                       # Packet count per connected master and slave (bytes)
system.membus.pkt_size_system.l2.mem_side::system.mem_ctrls.port     18374272                       # Cumulative packet size per connected master and slave (bytes)
system.membus.pkt_size_system.l2.mem_side::total     18374272                       # Cumulative packet size per connected master and slave (bytes)
system.membus.pkt_size::total                18374272                       # Cumulative packet size per connected master and slave (bytes)
system.membus.snoops                                0                       # Total snoops (count)
system.membus.snoopTraffic                          0                       # Total snoop traffic (bytes)
system.membus.snoop_fanout::samples            147229                       # Request fanout histogram
system.membus.snoop_fanout::mean                    0                       # Request fanout histogram
system.membus.snoop_fanout::stdev                   0                       # Request fanout histogram
system.membus.snoop_fanout::underflows              0      0.00%      0.00% # Request fanout histogram
system.membus.snoop_fanout::0                  147229    100.00%    100.00% # Request fanout histogram
system.membus.snoop_fanout::1                       0      0.00%    100.00% # Request fanout histogram
system.membus.snoop_fanout::overflows               0      0.00%    100.00% # Request fanout histogram
system.membus.snoop_fanout::min_value               0                       # Request fanout histogram
system.membus.snoop_fanout::max_value               0                       # Request fanout histogram
system.membus.snoop_fanout::total              147229                       # Request fanout histogram
system.membus.reqLayer12.occupancy          889364500                       # Layer occupancy (ticks)
system.membus.reqLayer12.utilization              5.8                       # Layer utilization (%)
system.membus.respLayer1.occupancy          775697000                       # Layer occupancy (ticks)
system.membus.respLayer1.utilization              5.1                       # Layer utilization (%)
system.tol2bus.snoop_filter.tot_requests       344351                       # Total number of requests made to the snoop filter.
system.tol2bus.snoop_filter.hit_single_requests       172170                       # Number of requests hitting in the snoop filter with a single holder of the requested data.
system.tol2bus.snoop_filter.hit_multi_requests           13                       # Number of requests hitting in the snoop filter with multiple (>1) holders of the requested data.
system.tol2bus.snoop_filter.tot_snoops            358                       # Total number of snoops made to the snoop filter.
system.tol2bus.snoop_filter.hit_single_snoops          358                       # Number of snoops hitting in the snoop filter with a single holder of the requested data.
system.tol2bus.snoop_filter.hit_multi_snoops            0                       # Number of snoops hitting in the snoop filter with multiple (>1) holders of the requested data.
system.tol2bus.pwrStateResidencyTicks::UNDEFINED  15267344125                       # Cumulative time (in ticks) in various power states
system.tol2bus.trans_dist::ReadResp            127512                       # Transaction distribution
system.tol2bus.trans_dist::WritebackDirty       193884                       # Transaction distribution
system.tol2bus.trans_dist::WritebackClean          607                       # Transaction distribution
system.tol2bus.trans_dist::CleanEvict          125280                       # Transaction distribution
system.tol2bus.trans_dist::UpgradeReq               4                       # Transaction distribution
system.tol2bus.trans_dist::UpgradeResp              4                       # Transaction distribution
system.tol2bus.trans_dist::ReadExReq            44663                       # Transaction distribution
system.tol2bus.trans_dist::ReadExResp           44663                       # Transaction distribution
system.tol2bus.trans_dist::ReadCleanReq           612                       # Transaction distribution
system.tol2bus.trans_dist::ReadSharedReq       126902                       # Transaction distribution
system.tol2bus.pkt_count_system.cpu0.icache.mem_side::system.l2.cpu_side         1827                       # Packet count per connected master and slave (bytes)
system.tol2bus.pkt_count_system.cpu0.dcache.mem_side::system.l2.cpu_side       514699                       # Packet count per connected master and slave (bytes)
system.tol2bus.pkt_count::total                516526                       # Packet count per connected master and slave (bytes)
system.tol2bus.pkt_size_system.cpu0.icache.mem_side::system.l2.cpu_side        77760                       # Cumulative packet size per connected master and slave (bytes)
system.tol2bus.pkt_size_system.cpu0.dcache.mem_side::system.l2.cpu_side     14436864                       # Cumulative packet size per connected master and slave (bytes)
system.tol2bus.pkt_size::total               14514624                       # Cumulative packet size per connected master and slave (bytes)
system.tol2bus.snoops                          147605                       # Total snoops (count)
system.tol2bus.snoopTraffic                   8952000                       # Total snoop traffic (bytes)
system.tol2bus.snoop_fanout::samples           319782                       # Request fanout histogram
system.tol2bus.snoop_fanout::mean            0.001160                       # Request fanout histogram
system.tol2bus.snoop_fanout::stdev           0.034041                       # Request fanout histogram
system.tol2bus.snoop_fanout::underflows             0      0.00%      0.00% # Request fanout histogram
system.tol2bus.snoop_fanout::0                 319411     99.88%     99.88% # Request fanout histogram
system.tol2bus.snoop_fanout::1                    371      0.12%    100.00% # Request fanout histogram
system.tol2bus.snoop_fanout::2                      0      0.00%    100.00% # Request fanout histogram
system.tol2bus.snoop_fanout::3                      0      0.00%    100.00% # Request fanout histogram
system.tol2bus.snoop_fanout::4                      0      0.00%    100.00% # Request fanout histogram
system.tol2bus.snoop_fanout::5                      0      0.00%    100.00% # Request fanout histogram
system.tol2bus.snoop_fanout::6                      0      0.00%    100.00% # Request fanout histogram
system.tol2bus.snoop_fanout::7                      0      0.00%    100.00% # Request fanout histogram
system.tol2bus.snoop_fanout::8                      0      0.00%    100.00% # Request fanout histogram
system.tol2bus.snoop_fanout::9                      0      0.00%    100.00% # Request fanout histogram
system.tol2bus.snoop_fanout::10                     0      0.00%    100.00% # Request fanout histogram
system.tol2bus.snoop_fanout::11                     0      0.00%    100.00% # Request fanout histogram
system.tol2bus.snoop_fanout::12                     0      0.00%    100.00% # Request fanout histogram
system.tol2bus.snoop_fanout::13                     0      0.00%    100.00% # Request fanout histogram
system.tol2bus.snoop_fanout::14                     0      0.00%    100.00% # Request fanout histogram
system.tol2bus.snoop_fanout::15                     0      0.00%    100.00% # Request fanout histogram
system.tol2bus.snoop_fanout::16                     0      0.00%    100.00% # Request fanout histogram
system.tol2bus.snoop_fanout::17                     0      0.00%    100.00% # Request fanout histogram
system.tol2bus.snoop_fanout::18                     0      0.00%    100.00% # Request fanout histogram
system.tol2bus.snoop_fanout::19                     0      0.00%    100.00% # Request fanout histogram
system.tol2bus.snoop_fanout::20                     0      0.00%    100.00% # Request fanout histogram
system.tol2bus.snoop_fanout::21                     0      0.00%    100.00% # Request fanout histogram
system.tol2bus.snoop_fanout::22                     0      0.00%    100.00% # Request fanout histogram
system.tol2bus.snoop_fanout::23                     0      0.00%    100.00% # Request fanout histogram
system.tol2bus.snoop_fanout::24                     0      0.00%    100.00% # Request fanout histogram
system.tol2bus.snoop_fanout::overflows              0      0.00%    100.00% # Request fanout histogram
system.tol2bus.snoop_fanout::min_value              0                       # Request fanout histogram
system.tol2bus.snoop_fanout::max_value              1                       # Request fanout histogram
system.tol2bus.snoop_fanout::total             319782                       # Request fanout histogram
system.tol2bus.reqLayer0.occupancy          226795500                       # Layer occupancy (ticks)
system.tol2bus.reqLayer0.utilization              1.5                       # Layer utilization (%)
system.tol2bus.respLayer0.occupancy            918000                       # Layer occupancy (ticks)
system.tol2bus.respLayer0.utilization             0.0                       # Layer utilization (%)
system.tol2bus.respLayer1.occupancy         257346500                       # Layer occupancy (ticks)
system.tol2bus.respLayer1.utilization             1.7                       # Layer utilization (%)

---------- End Simulation Statistics   ----------
