
---------- Begin Simulation Statistics ----------
sim_seconds                                  0.015267                       # Number of seconds simulated
sim_ticks                                 15267344125                       # Number of ticks simulated
final_tick                               3267211642750                       # Number of ticks from beginning of simulation (restored from checkpoints and never reset)
sim_freq                                 1000000000000                       # Frequency of simulated ticks
host_inst_rate                               48857847                       # Simulator instruction rate (inst/s)
host_op_rate                                 90747942                       # Simulator op (including micro ops) rate (op/s)
host_tick_rate                              129626528                       # Simulator tick rate (ticks/s)
host_mem_usage                                3428828                       # Number of bytes of host memory used
host_seconds                                   117.78                       # Real time elapsed on the host
sim_insts                                  5754449883                       # Number of instructions simulated
sim_ops                                   10688243905                       # Number of ops (including micro ops) simulated
system.voltage_domain.voltage                       1                       # Voltage in Volts
system.clk_domain.clock                          1000                       # Clock period in ticks
system.mem_ctrls.pwrStateResidencyTicks::UNDEFINED  15267344125                       # Cumulative time (in ticks) in various power states
system.mem_ctrls.bytes_read::cpu0.inst             64                       # Number of bytes read from this memory
system.mem_ctrls.bytes_read::cpu0.data         182720                       # Number of bytes read from this memory
system.mem_ctrls.bytes_read::total             182784                       # Number of bytes read from this memory
system.mem_ctrls.bytes_inst_read::cpu0.inst           64                       # Number of instructions bytes read from this memory
system.mem_ctrls.bytes_inst_read::total            64                       # Number of instructions bytes read from this memory
system.mem_ctrls.bytes_written::writebacks        51584                       # Number of bytes written to this memory
system.mem_ctrls.bytes_written::total           51584                       # Number of bytes written to this memory
system.mem_ctrls.num_reads::cpu0.inst               1                       # Number of read requests responded to by this memory
system.mem_ctrls.num_reads::cpu0.data            2855                       # Number of read requests responded to by this memory
system.mem_ctrls.num_reads::total                2856                       # Number of read requests responded to by this memory
system.mem_ctrls.num_writes::writebacks           806                       # Number of write requests responded to by this memory
system.mem_ctrls.num_writes::total                806                       # Number of write requests responded to by this memory
system.mem_ctrls.bw_read::cpu0.inst              4192                       # Total read bandwidth from this memory (bytes/s)
system.mem_ctrls.bw_read::cpu0.data          11968028                       # Total read bandwidth from this memory (bytes/s)
system.mem_ctrls.bw_read::total              11972220                       # Total read bandwidth from this memory (bytes/s)
system.mem_ctrls.bw_inst_read::cpu0.inst         4192                       # Instruction read bandwidth from this memory (bytes/s)
system.mem_ctrls.bw_inst_read::total             4192                       # Instruction read bandwidth from this memory (bytes/s)
system.mem_ctrls.bw_write::writebacks         3378715                       # Write bandwidth from this memory (bytes/s)
system.mem_ctrls.bw_write::total              3378715                       # Write bandwidth from this memory (bytes/s)
system.mem_ctrls.bw_total::writebacks         3378715                       # Total bandwidth to/from this memory (bytes/s)
system.mem_ctrls.bw_total::cpu0.inst             4192                       # Total bandwidth to/from this memory (bytes/s)
system.mem_ctrls.bw_total::cpu0.data         11968028                       # Total bandwidth to/from this memory (bytes/s)
system.mem_ctrls.bw_total::total             15350935                       # Total bandwidth to/from this memory (bytes/s)
system.mem_ctrls.readReqs                        2856                       # Number of read requests accepted
system.mem_ctrls.writeReqs                        806                       # Number of write requests accepted
system.mem_ctrls.readBursts                      2856                       # Number of DRAM read bursts, including those serviced by the write queue
system.mem_ctrls.writeBursts                      806                       # Number of DRAM write bursts, including those merged in the write queue
system.mem_ctrls.bytesReadDRAM                 182720                       # Total number of bytes read from DRAM
system.mem_ctrls.bytesReadWrQ                      64                       # Total number of bytes read from write queue
system.mem_ctrls.bytesWritten                   51392                       # Total number of bytes written to DRAM
system.mem_ctrls.bytesReadSys                  182784                       # Total read bytes from the system interface side
system.mem_ctrls.bytesWrittenSys                51584                       # Total written bytes from the system interface side
system.mem_ctrls.servicedByWrQ                      1                       # Number of DRAM read bursts serviced by the write queue
system.mem_ctrls.mergedWrBursts                     0                       # Number of DRAM write bursts merged with an existing one
system.mem_ctrls.neitherReadNorWriteReqs            0                       # Number of requests that are neither read nor write
system.mem_ctrls.perBankRdBursts::0               207                       # Per bank write bursts
system.mem_ctrls.perBankRdBursts::1               143                       # Per bank write bursts
system.mem_ctrls.perBankRdBursts::2               173                       # Per bank write bursts
system.mem_ctrls.perBankRdBursts::3               254                       # Per bank write bursts
system.mem_ctrls.perBankRdBursts::4               289                       # Per bank write bursts
system.mem_ctrls.perBankRdBursts::5               298                       # Per bank write bursts
system.mem_ctrls.perBankRdBursts::6               296                       # Per bank write bursts
system.mem_ctrls.perBankRdBursts::7               243                       # Per bank write bursts
system.mem_ctrls.perBankRdBursts::8               302                       # Per bank write bursts
system.mem_ctrls.perBankRdBursts::9               242                       # Per bank write bursts
system.mem_ctrls.perBankRdBursts::10              122                       # Per bank write bursts
system.mem_ctrls.perBankRdBursts::11              115                       # Per bank write bursts
system.mem_ctrls.perBankRdBursts::12               97                       # Per bank write bursts
system.mem_ctrls.perBankRdBursts::13               70                       # Per bank write bursts
system.mem_ctrls.perBankRdBursts::14                0                       # Per bank write bursts
system.mem_ctrls.perBankRdBursts::15                4                       # Per bank write bursts
system.mem_ctrls.perBankWrBursts::0                83                       # Per bank write bursts
system.mem_ctrls.perBankWrBursts::1               105                       # Per bank write bursts
system.mem_ctrls.perBankWrBursts::2               105                       # Per bank write bursts
system.mem_ctrls.perBankWrBursts::3                98                       # Per bank write bursts
system.mem_ctrls.perBankWrBursts::4                66                       # Per bank write bursts
system.mem_ctrls.perBankWrBursts::5               112                       # Per bank write bursts
system.mem_ctrls.perBankWrBursts::6                89                       # Per bank write bursts
system.mem_ctrls.perBankWrBursts::7                 1                       # Per bank write bursts
system.mem_ctrls.perBankWrBursts::8                 0                       # Per bank write bursts
system.mem_ctrls.perBankWrBursts::9                 0                       # Per bank write bursts
system.mem_ctrls.perBankWrBursts::10                2                       # Per bank write bursts
system.mem_ctrls.perBankWrBursts::11                3                       # Per bank write bursts
system.mem_ctrls.perBankWrBursts::12               62                       # Per bank write bursts
system.mem_ctrls.perBankWrBursts::13               68                       # Per bank write bursts
system.mem_ctrls.perBankWrBursts::14                0                       # Per bank write bursts
system.mem_ctrls.perBankWrBursts::15                9                       # Per bank write bursts
system.mem_ctrls.numRdRetry                         0                       # Number of times read queue was full causing retry
system.mem_ctrls.numWrRetry                         0                       # Number of times write queue was full causing retry
system.mem_ctrls.totGap                   15264824000                       # Total gap between requests
system.mem_ctrls.readPktSize::0                     0                       # Read request sizes (log2)
system.mem_ctrls.readPktSize::1                     0                       # Read request sizes (log2)
system.mem_ctrls.readPktSize::2                     0                       # Read request sizes (log2)
system.mem_ctrls.readPktSize::3                     0                       # Read request sizes (log2)
system.mem_ctrls.readPktSize::4                     0                       # Read request sizes (log2)
system.mem_ctrls.readPktSize::5                     0                       # Read request sizes (log2)
system.mem_ctrls.readPktSize::6                  2856                       # Read request sizes (log2)
system.mem_ctrls.writePktSize::0                    0                       # Write request sizes (log2)
system.mem_ctrls.writePktSize::1                    0                       # Write request sizes (log2)
system.mem_ctrls.writePktSize::2                    0                       # Write request sizes (log2)
system.mem_ctrls.writePktSize::3                    0                       # Write request sizes (log2)
system.mem_ctrls.writePktSize::4                    0                       # Write request sizes (log2)
system.mem_ctrls.writePktSize::5                    0                       # Write request sizes (log2)
system.mem_ctrls.writePktSize::6                  806                       # Write request sizes (log2)
system.mem_ctrls.rdQLenPdf::0                    2609                       # What read queue length does an incoming req see
system.mem_ctrls.rdQLenPdf::1                     227                       # What read queue length does an incoming req see
system.mem_ctrls.rdQLenPdf::2                      18                       # What read queue length does an incoming req see
system.mem_ctrls.rdQLenPdf::3                       1                       # What read queue length does an incoming req see
system.mem_ctrls.rdQLenPdf::4                       0                       # What read queue length does an incoming req see
system.mem_ctrls.rdQLenPdf::5                       0                       # What read queue length does an incoming req see
system.mem_ctrls.rdQLenPdf::6                       0                       # What read queue length does an incoming req see
system.mem_ctrls.rdQLenPdf::7                       0                       # What read queue length does an incoming req see
system.mem_ctrls.rdQLenPdf::8                       0                       # What read queue length does an incoming req see
system.mem_ctrls.rdQLenPdf::9                       0                       # What read queue length does an incoming req see
system.mem_ctrls.rdQLenPdf::10                      0                       # What read queue length does an incoming req see
system.mem_ctrls.rdQLenPdf::11                      0                       # What read queue length does an incoming req see
system.mem_ctrls.rdQLenPdf::12                      0                       # What read queue length does an incoming req see
system.mem_ctrls.rdQLenPdf::13                      0                       # What read queue length does an incoming req see
system.mem_ctrls.rdQLenPdf::14                      0                       # What read queue length does an incoming req see
system.mem_ctrls.rdQLenPdf::15                      0                       # What read queue length does an incoming req see
system.mem_ctrls.rdQLenPdf::16                      0                       # What read queue length does an incoming req see
system.mem_ctrls.rdQLenPdf::17                      0                       # What read queue length does an incoming req see
system.mem_ctrls.rdQLenPdf::18                      0                       # What read queue length does an incoming req see
system.mem_ctrls.rdQLenPdf::19                      0                       # What read queue length does an incoming req see
system.mem_ctrls.rdQLenPdf::20                      0                       # What read queue length does an incoming req see
system.mem_ctrls.rdQLenPdf::21                      0                       # What read queue length does an incoming req see
system.mem_ctrls.rdQLenPdf::22                      0                       # What read queue length does an incoming req see
system.mem_ctrls.rdQLenPdf::23                      0                       # What read queue length does an incoming req see
system.mem_ctrls.rdQLenPdf::24                      0                       # What read queue length does an incoming req see
system.mem_ctrls.rdQLenPdf::25                      0                       # What read queue length does an incoming req see
system.mem_ctrls.rdQLenPdf::26                      0                       # What read queue length does an incoming req see
system.mem_ctrls.rdQLenPdf::27                      0                       # What read queue length does an incoming req see
system.mem_ctrls.rdQLenPdf::28                      0                       # What read queue length does an incoming req see
system.mem_ctrls.rdQLenPdf::29                      0                       # What read queue length does an incoming req see
system.mem_ctrls.rdQLenPdf::30                      0                       # What read queue length does an incoming req see
system.mem_ctrls.rdQLenPdf::31                      0                       # What read queue length does an incoming req see
system.mem_ctrls.wrQLenPdf::0                       0                       # What write queue length does an incoming req see
system.mem_ctrls.wrQLenPdf::1                       0                       # What write queue length does an incoming req see
system.mem_ctrls.wrQLenPdf::2                       0                       # What write queue length does an incoming req see
system.mem_ctrls.wrQLenPdf::3                       0                       # What write queue length does an incoming req see
system.mem_ctrls.wrQLenPdf::4                       0                       # What write queue length does an incoming req see
system.mem_ctrls.wrQLenPdf::5                       0                       # What write queue length does an incoming req see
system.mem_ctrls.wrQLenPdf::6                       0                       # What write queue length does an incoming req see
system.mem_ctrls.wrQLenPdf::7                       0                       # What write queue length does an incoming req see
system.mem_ctrls.wrQLenPdf::8                       0                       # What write queue length does an incoming req see
system.mem_ctrls.wrQLenPdf::9                       0                       # What write queue length does an incoming req see
system.mem_ctrls.wrQLenPdf::10                      0                       # What write queue length does an incoming req see
system.mem_ctrls.wrQLenPdf::11                      0                       # What write queue length does an incoming req see
system.mem_ctrls.wrQLenPdf::12                      0                       # What write queue length does an incoming req see
system.mem_ctrls.wrQLenPdf::13                      0                       # What write queue length does an incoming req see
system.mem_ctrls.wrQLenPdf::14                      0                       # What write queue length does an incoming req see
system.mem_ctrls.wrQLenPdf::15                     33                       # What write queue length does an incoming req see
system.mem_ctrls.wrQLenPdf::16                     35                       # What write queue length does an incoming req see
system.mem_ctrls.wrQLenPdf::17                     47                       # What write queue length does an incoming req see
system.mem_ctrls.wrQLenPdf::18                     47                       # What write queue length does an incoming req see
system.mem_ctrls.wrQLenPdf::19                     46                       # What write queue length does an incoming req see
system.mem_ctrls.wrQLenPdf::20                     46                       # What write queue length does an incoming req see
system.mem_ctrls.wrQLenPdf::21                     46                       # What write queue length does an incoming req see
system.mem_ctrls.wrQLenPdf::22                     46                       # What write queue length does an incoming req see
system.mem_ctrls.wrQLenPdf::23                     46                       # What write queue length does an incoming req see
system.mem_ctrls.wrQLenPdf::24                     46                       # What write queue length does an incoming req see
system.mem_ctrls.wrQLenPdf::25                     46                       # What write queue length does an incoming req see
system.mem_ctrls.wrQLenPdf::26                     46                       # What write queue length does an incoming req see
system.mem_ctrls.wrQLenPdf::27                     46                       # What write queue length does an incoming req see
system.mem_ctrls.wrQLenPdf::28                     46                       # What write queue length does an incoming req see
system.mem_ctrls.wrQLenPdf::29                     46                       # What write queue length does an incoming req see
system.mem_ctrls.wrQLenPdf::30                     46                       # What write queue length does an incoming req see
system.mem_ctrls.wrQLenPdf::31                     46                       # What write queue length does an incoming req see
system.mem_ctrls.wrQLenPdf::32                     46                       # What write queue length does an incoming req see
system.mem_ctrls.wrQLenPdf::33                      0                       # What write queue length does an incoming req see
system.mem_ctrls.wrQLenPdf::34                      0                       # What write queue length does an incoming req see
system.mem_ctrls.wrQLenPdf::35                      0                       # What write queue length does an incoming req see
system.mem_ctrls.wrQLenPdf::36                      0                       # What write queue length does an incoming req see
system.mem_ctrls.wrQLenPdf::37                      0                       # What write queue length does an incoming req see
system.mem_ctrls.wrQLenPdf::38                      0                       # What write queue length does an incoming req see
system.mem_ctrls.wrQLenPdf::39                      0                       # What write queue length does an incoming req see
system.mem_ctrls.wrQLenPdf::40                      0                       # What write queue length does an incoming req see
system.mem_ctrls.wrQLenPdf::41                      0                       # What write queue length does an incoming req see
system.mem_ctrls.wrQLenPdf::42                      0                       # What write queue length does an incoming req see
system.mem_ctrls.wrQLenPdf::43                      0                       # What write queue length does an incoming req see
system.mem_ctrls.wrQLenPdf::44                      0                       # What write queue length does an incoming req see
system.mem_ctrls.wrQLenPdf::45                      0                       # What write queue length does an incoming req see
system.mem_ctrls.wrQLenPdf::46                      0                       # What write queue length does an incoming req see
system.mem_ctrls.wrQLenPdf::47                      0                       # What write queue length does an incoming req see
system.mem_ctrls.wrQLenPdf::48                      0                       # What write queue length does an incoming req see
system.mem_ctrls.wrQLenPdf::49                      0                       # What write queue length does an incoming req see
system.mem_ctrls.wrQLenPdf::50                      0                       # What write queue length does an incoming req see
system.mem_ctrls.wrQLenPdf::51                      0                       # What write queue length does an incoming req see
system.mem_ctrls.wrQLenPdf::52                      0                       # What write queue length does an incoming req see
system.mem_ctrls.wrQLenPdf::53                      0                       # What write queue length does an incoming req see
system.mem_ctrls.wrQLenPdf::54                      0                       # What write queue length does an incoming req see
system.mem_ctrls.wrQLenPdf::55                      0                       # What write queue length does an incoming req see
system.mem_ctrls.wrQLenPdf::56                      0                       # What write queue length does an incoming req see
system.mem_ctrls.wrQLenPdf::57                      0                       # What write queue length does an incoming req see
system.mem_ctrls.wrQLenPdf::58                      0                       # What write queue length does an incoming req see
system.mem_ctrls.wrQLenPdf::59                      0                       # What write queue length does an incoming req see
system.mem_ctrls.wrQLenPdf::60                      0                       # What write queue length does an incoming req see
system.mem_ctrls.wrQLenPdf::61                      0                       # What write queue length does an incoming req see
system.mem_ctrls.wrQLenPdf::62                      0                       # What write queue length does an incoming req see
system.mem_ctrls.wrQLenPdf::63                      0                       # What write queue length does an incoming req see
system.mem_ctrls.bytesPerActivate::samples         2559                       # Bytes accessed per row activation
system.mem_ctrls.bytesPerActivate::mean     91.535756                       # Bytes accessed per row activation
system.mem_ctrls.bytesPerActivate::gmean    75.756418                       # Bytes accessed per row activation
system.mem_ctrls.bytesPerActivate::stdev   118.619859                       # Bytes accessed per row activation
system.mem_ctrls.bytesPerActivate::0-127         2099     82.02%     82.02% # Bytes accessed per row activation
system.mem_ctrls.bytesPerActivate::128-255          401     15.67%     97.69% # Bytes accessed per row activation
system.mem_ctrls.bytesPerActivate::256-383            7      0.27%     97.97% # Bytes accessed per row activation
system.mem_ctrls.bytesPerActivate::384-511            4      0.16%     98.12% # Bytes accessed per row activation
system.mem_ctrls.bytesPerActivate::512-639            3      0.12%     98.24% # Bytes accessed per row activation
system.mem_ctrls.bytesPerActivate::640-767            6      0.23%     98.48% # Bytes accessed per row activation
system.mem_ctrls.bytesPerActivate::768-895            7      0.27%     98.75% # Bytes accessed per row activation
system.mem_ctrls.bytesPerActivate::896-1023            6      0.23%     98.98% # Bytes accessed per row activation
system.mem_ctrls.bytesPerActivate::1024-1151           26      1.02%    100.00% # Bytes accessed per row activation
system.mem_ctrls.bytesPerActivate::total         2559                       # Bytes accessed per row activation
system.mem_ctrls.rdPerTurnAround::samples           46                       # Reads before turning the bus around for writes
system.mem_ctrls.rdPerTurnAround::mean      61.021739                       # Reads before turning the bus around for writes
system.mem_ctrls.rdPerTurnAround::gmean     49.928168                       # Reads before turning the bus around for writes
system.mem_ctrls.rdPerTurnAround::stdev     62.023110                       # Reads before turning the bus around for writes
system.mem_ctrls.rdPerTurnAround::32-47            36     78.26%     78.26% # Reads before turning the bus around for writes
system.mem_ctrls.rdPerTurnAround::48-63             4      8.70%     86.96% # Reads before turning the bus around for writes
system.mem_ctrls.rdPerTurnAround::64-79             2      4.35%     91.30% # Reads before turning the bus around for writes
system.mem_ctrls.rdPerTurnAround::96-111            1      2.17%     93.48% # Reads before turning the bus around for writes
system.mem_ctrls.rdPerTurnAround::224-239            1      2.17%     95.65% # Reads before turning the bus around for writes
system.mem_ctrls.rdPerTurnAround::304-319            2      4.35%    100.00% # Reads before turning the bus around for writes
system.mem_ctrls.rdPerTurnAround::total            46                       # Reads before turning the bus around for writes
system.mem_ctrls.wrPerTurnAround::samples           46                       # Writes before turning the bus around for reads
system.mem_ctrls.wrPerTurnAround::mean      17.456522                       # Writes before turning the bus around for reads
system.mem_ctrls.wrPerTurnAround::gmean     17.433666                       # Writes before turning the bus around for reads
system.mem_ctrls.wrPerTurnAround::stdev      0.887106                       # Writes before turning the bus around for reads
system.mem_ctrls.wrPerTurnAround::16               12     26.09%     26.09% # Writes before turning the bus around for reads
system.mem_ctrls.wrPerTurnAround::17                1      2.17%     28.26% # Writes before turning the bus around for reads
system.mem_ctrls.wrPerTurnAround::18               33     71.74%    100.00% # Writes before turning the bus around for reads
system.mem_ctrls.wrPerTurnAround::total            46                       # Writes before turning the bus around for reads
system.mem_ctrls.totQLat                    483072000                       # Total ticks spent queuing
system.mem_ctrls.totMemAccLat               536603250                       # Total ticks spent from burst creation until serviced by the DRAM
system.mem_ctrls.totBusLat                   14275000                       # Total ticks spent in databus transfers
system.mem_ctrls.avgQLat                    169202.10                       # Average queueing delay per DRAM burst
system.mem_ctrls.avgBusLat                    5000.00                       # Average bus latency per DRAM burst
system.mem_ctrls.avgMemAccLat               187952.10                       # Average memory access latency per DRAM burst
system.mem_ctrls.avgRdBW                        11.97                       # Average DRAM read bandwidth in MiByte/s
system.mem_ctrls.avgWrBW                         3.37                       # Average achieved write bandwidth in MiByte/s
system.mem_ctrls.avgRdBWSys                     11.97                       # Average system read bandwidth in MiByte/s
system.mem_ctrls.avgWrBWSys                      3.38                       # Average system write bandwidth in MiByte/s
system.mem_ctrls.peakBW                      12800.00                       # Theoretical peak bandwidth in MiByte/s
system.mem_ctrls.busUtil                         0.12                       # Data bus utilization in percentage
system.mem_ctrls.busUtilRead                     0.09                       # Data bus utilization in percentage for reads
system.mem_ctrls.busUtilWrite                    0.03                       # Data bus utilization in percentage for writes
system.mem_ctrls.avgRdQLen                       1.13                       # Average read queue length when enqueuing
system.mem_ctrls.avgWrQLen                      24.97                       # Average write queue length when enqueuing
system.mem_ctrls.readRowHits                      396                       # Number of row buffer hits during reads
system.mem_ctrls.writeRowHits                     705                       # Number of row buffer hits during writes
system.mem_ctrls.readRowHitRate                 13.87                       # Row buffer hit rate for reads
system.mem_ctrls.writeRowHitRate                87.47                       # Row buffer hit rate for writes
system.mem_ctrls.avgGap                    4168439.10                       # Average gap between requests
system.mem_ctrls.pageHitRate                    30.07                       # Row buffer hit rate, read and write combined
system.mem_ctrls_0.actEnergy                 12230820                       # Energy for activate commands per rank (pJ)
system.mem_ctrls_0.preEnergy                  6508425                       # Energy for precharge commands per rank (pJ)
system.mem_ctrls_0.readEnergy                13587420                       # Energy for read commands per rank (pJ)
system.mem_ctrls_0.writeEnergy                3439980                       # Energy for write commands per rank (pJ)
system.mem_ctrls_0.refreshEnergy         1122947280.000000                       # Energy for refresh commands per rank (pJ)
system.mem_ctrls_0.actBackEnergy            291377160                       # Energy for active background per rank (pJ)
system.mem_ctrls_0.preBackEnergy             59420640                       # Energy for precharge background per rank (pJ)
system.mem_ctrls_0.actPowerDownEnergy      1975243800                       # Energy for active power-down per rank (pJ)
system.mem_ctrls_0.prePowerDownEnergy      2301058560                       # Energy for precharge power-down per rank (pJ)
system.mem_ctrls_0.selfRefreshEnergy       1232263620                       # Energy for self refresh per rank (pJ)
system.mem_ctrls_0.totalEnergy             7020214215                       # Total energy per rank (pJ)
system.mem_ctrls_0.averagePower            459.818955                       # Core power per rank (mW)
system.mem_ctrls_0.totalIdleTime          14426172875                       # Total Idle time Per DRAM Rank
system.mem_ctrls_0.memoryStateTime::IDLE    118266000                       # Time in different power states
system.mem_ctrls_0.memoryStateTime::REF     477852000                       # Time in different power states
system.mem_ctrls_0.memoryStateTime::SREF   4144822750                       # Time in different power states
system.mem_ctrls_0.memoryStateTime::PRE_PDN   5992302250                       # Time in different power states
system.mem_ctrls_0.memoryStateTime::ACT     202488000                       # Time in different power states
system.mem_ctrls_0.memoryStateTime::ACT_PDN   4331613125                       # Time in different power states
system.mem_ctrls_1.actEnergy                  6026160                       # Energy for activate commands per rank (pJ)
system.mem_ctrls_1.preEnergy                  3202980                       # Energy for precharge commands per rank (pJ)
system.mem_ctrls_1.readEnergy                 6797280                       # Energy for read commands per rank (pJ)
system.mem_ctrls_1.writeEnergy                 751680                       # Energy for write commands per rank (pJ)
system.mem_ctrls_1.refreshEnergy         771987840.000000                       # Energy for refresh commands per rank (pJ)
system.mem_ctrls_1.actBackEnergy            210876630                       # Energy for active background per rank (pJ)
system.mem_ctrls_1.preBackEnergy             44460960                       # Energy for precharge background per rank (pJ)
system.mem_ctrls_1.actPowerDownEnergy      1269742260                       # Energy for active power-down per rank (pJ)
system.mem_ctrls_1.prePowerDownEnergy      1536468960                       # Energy for precharge power-down per rank (pJ)
system.mem_ctrls_1.selfRefreshEnergy       2080152180                       # Energy for self refresh per rank (pJ)
system.mem_ctrls_1.totalEnergy             5931831690                       # Total energy per rank (pJ)
system.mem_ctrls_1.averagePower            388.530686                       # Core power per rank (mW)
system.mem_ctrls_1.totalIdleTime          14684252125                       # Total Idle time Per DRAM Rank
system.mem_ctrls_1.memoryStateTime::IDLE     91392000                       # Time in different power states
system.mem_ctrls_1.memoryStateTime::REF     328720000                       # Time in different power states
system.mem_ctrls_1.memoryStateTime::SREF   7900319375                       # Time in different power states
system.mem_ctrls_1.memoryStateTime::PRE_PDN   4001225000                       # Time in different power states
system.mem_ctrls_1.memoryStateTime::ACT     161165750                       # Time in different power states
system.mem_ctrls_1.memoryStateTime::ACT_PDN   2784522000                       # Time in different power states
system.pwrStateResidencyTicks::UNDEFINED  15267344125                       # Cumulative time (in ticks) in various power states
system.cpu0.branchPred.lookups                6891249                       # Number of BP lookups
system.cpu0.branchPred.condPredicted          6891249                       # Number of conditional branches predicted
system.cpu0.branchPred.condIncorrect           285032                       # Number of conditional branches incorrect
system.cpu0.branchPred.BTBLookups             5112593                       # Number of BTB lookups
system.cpu0.branchPred.BTBHits                      0                       # Number of BTB hits
system.cpu0.branchPred.BTBCorrect                   0                       # Number of correct BTB predictions (this stat may not work properly.
system.cpu0.branchPred.BTBHitPct             0.000000                       # BTB Hit Percentage
system.cpu0.branchPred.usedRAS                 184470                       # Number of times the RAS was used to get a target.
system.cpu0.branchPred.RASInCorrect             25993                       # Number of incorrect RAS predictions.
system.cpu0.branchPred.indirectLookups        5112593                       # Number of indirect predictor lookups.
system.cpu0.branchPred.indirectHits           2956499                       # Number of indirect target hits.
system.cpu0.branchPred.indirectMisses         2156094                       # Number of indirect misses.
system.cpu0.branchPredindirectMispredicted        89126                       # Number of mispredicted indirect branches.
system.cpu_voltage_domain.voltage                   1                       # Voltage in Volts
system.cpu_clk_domain.clock                       500                       # Clock period in ticks
system.cpu0.dtb.walker.pwrStateResidencyTicks::UNDEFINED  15267344125                       # Cumulative time (in ticks) in various power states
system.cpu0.dtb.rdAccesses                    3390953                       # TLB accesses on read requests
system.cpu0.dtb.wrAccesses                     234765                       # TLB accesses on write requests
system.cpu0.dtb.rdMisses                       733021                       # TLB misses on read requests
system.cpu0.dtb.wrMisses                         4036                       # TLB misses on write requests
system.cpu0.apic_clk_domain.clock                8000                       # Clock period in ticks
system.cpu0.interrupts.pwrStateResidencyTicks::UNDEFINED  15267344125                       # Cumulative time (in ticks) in various power states
system.cpu0.itb.walker.pwrStateResidencyTicks::UNDEFINED  15267344125                       # Cumulative time (in ticks) in various power states
system.cpu0.itb.rdAccesses                          0                       # TLB accesses on read requests
system.cpu0.itb.wrAccesses                    5855423                       # TLB accesses on write requests
system.cpu0.itb.rdMisses                            0                       # TLB misses on read requests
system.cpu0.itb.wrMisses                        19337                       # TLB misses on write requests
system.cpu0.workload.numSyscalls                    0                       # Number of system calls
system.cpu0.pwrStateResidencyTicks::ON    15267344125                       # Cumulative time (in ticks) in various power states
system.cpu0.numCycles                        30534688                       # number of cpu cycles simulated
system.cpu0.numWorkItemsStarted                     0                       # number of work items this cpu started
system.cpu0.numWorkItemsCompleted                   0                       # number of work items this cpu completed
system.cpu0.fetch.icacheStallCycles           5977738                       # Number of cycles fetch is stalled on an Icache miss
system.cpu0.fetch.Insts                      19932623                       # Number of instructions fetch has processed
system.cpu0.fetch.Branches                    6891249                       # Number of branches that fetch encountered
system.cpu0.fetch.predictedBranches           3140969                       # Number of branches that fetch has predicted taken
system.cpu0.fetch.Cycles                     24119846                       # Number of cycles fetch has run and was not squashing or blocked
system.cpu0.fetch.SquashCycles                 582558                       # Number of cycles fetch has spent squashing
system.cpu0.fetch.TlbCycles                       787                       # Number of cycles fetch has spent waiting for tlb
system.cpu0.fetch.MiscStallCycles                4109                       # Number of cycles fetch has spent waiting on interrupts, or bad addresses, or out of MSHRs
system.cpu0.fetch.PendingTrapStallCycles       138502                       # Number of stall cycles due to pending traps
system.cpu0.fetch.PendingQuiesceStallCycles            3                       # Number of stall cycles due to pending quiesce instructions
system.cpu0.fetch.CacheLines                  5836086                       # Number of cache lines fetched
system.cpu0.fetch.IcacheSquashes                46560                       # Number of outstanding Icache misses that were squashed
system.cpu0.fetch.ItlbSquashes                     14                       # Number of outstanding ITLB misses that were squashed
system.cpu0.fetch.rateDist::samples          30532264                       # Number of instructions fetched each cycle (Total)
system.cpu0.fetch.rateDist::mean             1.312021                       # Number of instructions fetched each cycle (Total)
system.cpu0.fetch.rateDist::stdev            2.649329                       # Number of instructions fetched each cycle (Total)
system.cpu0.fetch.rateDist::underflows              0      0.00%      0.00% # Number of instructions fetched each cycle (Total)
system.cpu0.fetch.rateDist::0                22782477     74.62%     74.62% # Number of instructions fetched each cycle (Total)
system.cpu0.fetch.rateDist::1                   67471      0.22%     74.84% # Number of instructions fetched each cycle (Total)
system.cpu0.fetch.rateDist::2                 2879634      9.43%     84.27% # Number of instructions fetched each cycle (Total)
system.cpu0.fetch.rateDist::3                  111060      0.36%     84.63% # Number of instructions fetched each cycle (Total)
system.cpu0.fetch.rateDist::4                  530083      1.74%     86.37% # Number of instructions fetched each cycle (Total)
system.cpu0.fetch.rateDist::5                  244272      0.80%     87.17% # Number of instructions fetched each cycle (Total)
system.cpu0.fetch.rateDist::6                  347637      1.14%     88.31% # Number of instructions fetched each cycle (Total)
system.cpu0.fetch.rateDist::7                   85501      0.28%     88.59% # Number of instructions fetched each cycle (Total)
system.cpu0.fetch.rateDist::8                 3484129     11.41%    100.00% # Number of instructions fetched each cycle (Total)
system.cpu0.fetch.rateDist::overflows               0      0.00%    100.00% # Number of instructions fetched each cycle (Total)
system.cpu0.fetch.rateDist::min_value               0                       # Number of instructions fetched each cycle (Total)
system.cpu0.fetch.rateDist::max_value               8                       # Number of instructions fetched each cycle (Total)
system.cpu0.fetch.rateDist::total            30532264                       # Number of instructions fetched each cycle (Total)
system.cpu0.fetch.branchRate                 0.225686                       # Number of branch fetches per cycle
system.cpu0.fetch.rate                       0.652786                       # Number of inst fetches per cycle
system.cpu0.decode.IdleCycles                 3136588                       # Number of cycles decode is idle
system.cpu0.decode.BlockedCycles             21790124                       # Number of cycles decode is blocked
system.cpu0.decode.RunCycles                  4052275                       # Number of cycles decode is running
system.cpu0.decode.UnblockCycles              1261998                       # Number of cycles decode is unblocking
system.cpu0.decode.SquashCycles                291279                       # Number of cycles decode is squashing
system.cpu0.decode.DecodedInsts              34143855                       # Number of instructions handled by decode
system.cpu0.rename.SquashCycles                291279                       # Number of cycles rename is squashing
system.cpu0.rename.IdleCycles                 3622763                       # Number of cycles rename is idle
system.cpu0.rename.BlockCycles               17427063                       # Number of cycles rename is blocking
system.cpu0.rename.serializeStallCycles        104556                       # count of cycles rename stalled for serializing inst
system.cpu0.rename.RunCycles                  4584848                       # Number of cycles rename is running
system.cpu0.rename.UnblockCycles              4501755                       # Number of cycles rename is unblocking
system.cpu0.rename.RenamedInsts              32829892                       # Number of instructions processed by rename
system.cpu0.rename.ROBFullEvents                71511                       # Number of times rename has blocked due to ROB full
system.cpu0.rename.IQFullEvents               3965054                       # Number of times rename has blocked due to IQ full
system.cpu0.rename.LQFullEvents                 80994                       # Number of times rename has blocked due to LQ full
system.cpu0.rename.SQFullEvents                228186                       # Number of times rename has blocked due to SQ full
system.cpu0.rename.RenamedOperands           39167604                       # Number of destination operands rename has renamed
system.cpu0.rename.RenameLookups             91642044                       # Number of register rename lookups that rename has made
system.cpu0.rename.int_rename_lookups        43025664                       # Number of integer rename lookups
system.cpu0.rename.fp_rename_lookups           176619                       # Number of floating rename lookups
system.cpu0.rename.CommittedMaps             14957707                       # Number of HB maps that are committed
system.cpu0.rename.UndoneMaps                24209896                       # Number of HB maps that are undone due to squashing
system.cpu0.rename.serializingInsts              1485                       # count of serializing insts renamed
system.cpu0.rename.tempSerializingInsts          1729                       # count of temporary serializing insts renamed
system.cpu0.rename.skidInsts                  7928702                       # count of insts added to the skid buffer
system.cpu0.memDep0.insertedLoads             5896786                       # Number of loads inserted to the mem dependence unit.
system.cpu0.memDep0.insertedStores             340332                       # Number of stores inserted to the mem dependence unit.
system.cpu0.memDep0.conflictingLoads            23358                       # Number of conflicting loads.
system.cpu0.memDep0.conflictingStores           21231                       # Number of conflicting stores.
system.cpu0.iq.iqInstsAdded                  31173234                       # Number of instructions added to the IQ (excludes non-spec)
system.cpu0.iq.iqNonSpecInstsAdded              19385                       # Number of non-speculative instructions added to the IQ
system.cpu0.iq.iqInstsIssued                 22565065                       # Number of instructions issued
system.cpu0.iq.iqSquashedInstsIssued            32044                       # Number of squashed instructions issued
system.cpu0.iq.iqSquashedInstsExamined       18728335                       # Number of squashed instructions iterated over during squash; mainly for profiling
system.cpu0.iq.iqSquashedOperandsExamined     39873267                       # Number of squashed operands that are examined and possibly removed from graph
system.cpu0.iq.iqSquashedNonSpecRemoved         19385                       # Number of squashed non-spec instructions that were removed
system.cpu0.iq.issued_per_cycle::samples     30532264                       # Number of insts issued each cycle
system.cpu0.iq.issued_per_cycle::mean        0.739056                       # Number of insts issued each cycle
system.cpu0.iq.issued_per_cycle::stdev       1.460149                       # Number of insts issued each cycle
system.cpu0.iq.issued_per_cycle::underflows            0      0.00%      0.00% # Number of insts issued each cycle
system.cpu0.iq.issued_per_cycle::0           21753612     71.25%     71.25% # Number of insts issued each cycle
system.cpu0.iq.issued_per_cycle::1            3126869     10.24%     81.49% # Number of insts issued each cycle
system.cpu0.iq.issued_per_cycle::2            1894603      6.21%     87.69% # Number of insts issued each cycle
system.cpu0.iq.issued_per_cycle::3            1351935      4.43%     92.12% # Number of insts issued each cycle
system.cpu0.iq.issued_per_cycle::4            1344240      4.40%     96.52% # Number of insts issued each cycle
system.cpu0.iq.issued_per_cycle::5             476357      1.56%     98.09% # Number of insts issued each cycle
system.cpu0.iq.issued_per_cycle::6             353473      1.16%     99.24% # Number of insts issued each cycle
system.cpu0.iq.issued_per_cycle::7             135798      0.44%     99.69% # Number of insts issued each cycle
system.cpu0.iq.issued_per_cycle::8              95377      0.31%    100.00% # Number of insts issued each cycle
system.cpu0.iq.issued_per_cycle::overflows            0      0.00%    100.00% # Number of insts issued each cycle
system.cpu0.iq.issued_per_cycle::min_value            0                       # Number of insts issued each cycle
system.cpu0.iq.issued_per_cycle::max_value            8                       # Number of insts issued each cycle
system.cpu0.iq.issued_per_cycle::total       30532264                       # Number of insts issued each cycle
system.cpu0.iq.fu_full::No_OpClass                  0      0.00%      0.00% # attempts to use FU when none available
system.cpu0.iq.fu_full::IntAlu                  58804     72.57%     72.57% # attempts to use FU when none available
system.cpu0.iq.fu_full::IntMult                     0      0.00%     72.57% # attempts to use FU when none available
system.cpu0.iq.fu_full::IntDiv                      0      0.00%     72.57% # attempts to use FU when none available
system.cpu0.iq.fu_full::FloatAdd                 5363      6.62%     79.19% # attempts to use FU when none available
system.cpu0.iq.fu_full::FloatCmp                    0      0.00%     79.19% # attempts to use FU when none available
system.cpu0.iq.fu_full::FloatCvt                    0      0.00%     79.19% # attempts to use FU when none available
system.cpu0.iq.fu_full::FloatMult                   0      0.00%     79.19% # attempts to use FU when none available
system.cpu0.iq.fu_full::FloatMultAcc                0      0.00%     79.19% # attempts to use FU when none available
system.cpu0.iq.fu_full::FloatDiv                    0      0.00%     79.19% # attempts to use FU when none available
system.cpu0.iq.fu_full::FloatMisc                   0      0.00%     79.19% # attempts to use FU when none available
system.cpu0.iq.fu_full::FloatSqrt                   0      0.00%     79.19% # attempts to use FU when none available
system.cpu0.iq.fu_full::SimdAdd                     0      0.00%     79.19% # attempts to use FU when none available
system.cpu0.iq.fu_full::SimdAddAcc                  0      0.00%     79.19% # attempts to use FU when none available
system.cpu0.iq.fu_full::SimdAlu                     0      0.00%     79.19% # attempts to use FU when none available
system.cpu0.iq.fu_full::SimdCmp                     0      0.00%     79.19% # attempts to use FU when none available
system.cpu0.iq.fu_full::SimdCvt                     0      0.00%     79.19% # attempts to use FU when none available
system.cpu0.iq.fu_full::SimdMisc                    0      0.00%     79.19% # attempts to use FU when none available
system.cpu0.iq.fu_full::SimdMult                    0      0.00%     79.19% # attempts to use FU when none available
system.cpu0.iq.fu_full::SimdMultAcc                 0      0.00%     79.19% # attempts to use FU when none available
system.cpu0.iq.fu_full::SimdShift                   0      0.00%     79.19% # attempts to use FU when none available
system.cpu0.iq.fu_full::SimdShiftAcc                0      0.00%     79.19% # attempts to use FU when none available
system.cpu0.iq.fu_full::SimdSqrt                    0      0.00%     79.19% # attempts to use FU when none available
system.cpu0.iq.fu_full::SimdFloatAdd                0      0.00%     79.19% # attempts to use FU when none available
system.cpu0.iq.fu_full::SimdFloatAlu                0      0.00%     79.19% # attempts to use FU when none available
system.cpu0.iq.fu_full::SimdFloatCmp                0      0.00%     79.19% # attempts to use FU when none available
system.cpu0.iq.fu_full::SimdFloatCvt                0      0.00%     79.19% # attempts to use FU when none available
system.cpu0.iq.fu_full::SimdFloatDiv                0      0.00%     79.19% # attempts to use FU when none available
system.cpu0.iq.fu_full::SimdFloatMisc               0      0.00%     79.19% # attempts to use FU when none available
system.cpu0.iq.fu_full::SimdFloatMult               0      0.00%     79.19% # attempts to use FU when none available
system.cpu0.iq.fu_full::SimdFloatMultAcc            0      0.00%     79.19% # attempts to use FU when none available
system.cpu0.iq.fu_full::SimdFloatSqrt               0      0.00%     79.19% # attempts to use FU when none available
system.cpu0.iq.fu_full::MemRead                 15051     18.57%     97.76% # attempts to use FU when none available
system.cpu0.iq.fu_full::MemWrite                 1329      1.64%     99.40% # attempts to use FU when none available
system.cpu0.iq.fu_full::FloatMemRead              366      0.45%     99.85% # attempts to use FU when none available
system.cpu0.iq.fu_full::FloatMemWrite             118      0.15%    100.00% # attempts to use FU when none available
system.cpu0.iq.fu_full::IprAccess                   0      0.00%    100.00% # attempts to use FU when none available
system.cpu0.iq.fu_full::InstPrefetch                0      0.00%    100.00% # attempts to use FU when none available
system.cpu0.iq.FU_type_0::No_OpClass            73705      0.33%      0.33% # Type of FU issued
system.cpu0.iq.FU_type_0::IntAlu             18529734     82.12%     82.44% # Type of FU issued
system.cpu0.iq.FU_type_0::IntMult                4630      0.02%     82.46% # Type of FU issued
system.cpu0.iq.FU_type_0::IntDiv                47752      0.21%     82.68% # Type of FU issued
system.cpu0.iq.FU_type_0::FloatAdd              68866      0.31%     82.98% # Type of FU issued
system.cpu0.iq.FU_type_0::FloatCmp                  0      0.00%     82.98% # Type of FU issued
system.cpu0.iq.FU_type_0::FloatCvt                  0      0.00%     82.98% # Type of FU issued
system.cpu0.iq.FU_type_0::FloatMult                 0      0.00%     82.98% # Type of FU issued
system.cpu0.iq.FU_type_0::FloatMultAcc              0      0.00%     82.98% # Type of FU issued
system.cpu0.iq.FU_type_0::FloatDiv                  0      0.00%     82.98% # Type of FU issued
system.cpu0.iq.FU_type_0::FloatMisc                 0      0.00%     82.98% # Type of FU issued
system.cpu0.iq.FU_type_0::FloatSqrt                 0      0.00%     82.98% # Type of FU issued
system.cpu0.iq.FU_type_0::SimdAdd                   0      0.00%     82.98% # Type of FU issued
system.cpu0.iq.FU_type_0::SimdAddAcc                0      0.00%     82.98% # Type of FU issued
system.cpu0.iq.FU_type_0::SimdAlu                   0      0.00%     82.98% # Type of FU issued
system.cpu0.iq.FU_type_0::SimdCmp                   0      0.00%     82.98% # Type of FU issued
system.cpu0.iq.FU_type_0::SimdCvt                   0      0.00%     82.98% # Type of FU issued
system.cpu0.iq.FU_type_0::SimdMisc                  0      0.00%     82.98% # Type of FU issued
system.cpu0.iq.FU_type_0::SimdMult                  0      0.00%     82.98% # Type of FU issued
system.cpu0.iq.FU_type_0::SimdMultAcc               0      0.00%     82.98% # Type of FU issued
system.cpu0.iq.FU_type_0::SimdShift                 0      0.00%     82.98% # Type of FU issued
system.cpu0.iq.FU_type_0::SimdShiftAcc              0      0.00%     82.98% # Type of FU issued
system.cpu0.iq.FU_type_0::SimdSqrt                  0      0.00%     82.98% # Type of FU issued
system.cpu0.iq.FU_type_0::SimdFloatAdd              0      0.00%     82.98% # Type of FU issued
system.cpu0.iq.FU_type_0::SimdFloatAlu              0      0.00%     82.98% # Type of FU issued
system.cpu0.iq.FU_type_0::SimdFloatCmp              0      0.00%     82.98% # Type of FU issued
system.cpu0.iq.FU_type_0::SimdFloatCvt              0      0.00%     82.98% # Type of FU issued
system.cpu0.iq.FU_type_0::SimdFloatDiv              0      0.00%     82.98% # Type of FU issued
system.cpu0.iq.FU_type_0::SimdFloatMisc             0      0.00%     82.98% # Type of FU issued
system.cpu0.iq.FU_type_0::SimdFloatMult             0      0.00%     82.98% # Type of FU issued
system.cpu0.iq.FU_type_0::SimdFloatMultAcc            0      0.00%     82.98% # Type of FU issued
system.cpu0.iq.FU_type_0::SimdFloatSqrt             0      0.00%     82.98% # Type of FU issued
system.cpu0.iq.FU_type_0::MemRead             3576350     15.85%     98.83% # Type of FU issued
system.cpu0.iq.FU_type_0::MemWrite             252236      1.12%     99.95% # Type of FU issued
system.cpu0.iq.FU_type_0::FloatMemRead          11317      0.05%    100.00% # Type of FU issued
system.cpu0.iq.FU_type_0::FloatMemWrite           475      0.00%    100.00% # Type of FU issued
system.cpu0.iq.FU_type_0::IprAccess                 0      0.00%    100.00% # Type of FU issued
system.cpu0.iq.FU_type_0::InstPrefetch              0      0.00%    100.00% # Type of FU issued
system.cpu0.iq.FU_type_0::total              22565065                       # Type of FU issued
system.cpu0.iq.rate                          0.738998                       # Inst issue rate
system.cpu0.iq.fu_busy_cnt                      81031                       # FU busy when requested
system.cpu0.iq.fu_busy_rate                  0.003591                       # FU busy rate (busy events/executed inst)
system.cpu0.iq.int_inst_queue_reads          75607361                       # Number of integer instruction queue reads
system.cpu0.iq.int_inst_queue_writes         49777478                       # Number of integer instruction queue writes
system.cpu0.iq.int_inst_queue_wakeup_accesses     21600110                       # Number of integer instruction queue wakeup accesses
system.cpu0.iq.fp_inst_queue_reads             168107                       # Number of floating instruction queue reads
system.cpu0.iq.fp_inst_queue_writes            143506                       # Number of floating instruction queue writes
system.cpu0.iq.fp_inst_queue_wakeup_accesses        75722                       # Number of floating instruction queue wakeup accesses
system.cpu0.iq.vec_inst_queue_reads                 0                       # Number of vector instruction queue reads
system.cpu0.iq.vec_inst_queue_writes                0                       # Number of vector instruction queue writes
system.cpu0.iq.vec_inst_queue_wakeup_accesses            0                       # Number of vector instruction queue wakeup accesses
system.cpu0.iq.int_alu_accesses              22485832                       # Number of integer alu accesses
system.cpu0.iq.fp_alu_accesses                  86559                       # Number of floating point alu accesses
system.cpu0.iq.vec_alu_accesses                     0                       # Number of vector alu accesses
system.cpu0.iew.lsq.thread0.forwLoads           28450                       # Number of loads that had data forwarded from stores
system.cpu0.iew.lsq.thread0.invAddrLoads            0                       # Number of loads ignored due to an invalid address
system.cpu0.iew.lsq.thread0.squashedLoads      3563479                       # Number of loads squashed
system.cpu0.iew.lsq.thread0.ignoredResponses          673                       # Number of memory responses ignored because the instruction is squashed
system.cpu0.iew.lsq.thread0.memOrderViolation           32                       # Number of memory ordering violations
system.cpu0.iew.lsq.thread0.squashedStores       198132                       # Number of stores squashed
system.cpu0.iew.lsq.thread0.invAddrSwpfs            0                       # Number of software prefetches ignored due to an invalid address
system.cpu0.iew.lsq.thread0.blockedLoads            0                       # Number of blocked loads due to partial load-store forwarding
system.cpu0.iew.lsq.thread0.rescheduledLoads          239                       # Number of loads that were rescheduled
system.cpu0.iew.lsq.thread0.cacheBlocked         9886                       # Number of times an access to memory failed due to the cache being blocked
system.cpu0.iew.iewIdleCycles                       0                       # Number of cycles IEW is idle
system.cpu0.iew.iewSquashCycles                291279                       # Number of cycles IEW is squashing
system.cpu0.iew.iewBlockCycles               14217263                       # Number of cycles IEW is blocking
system.cpu0.iew.iewUnblockCycles               709144                       # Number of cycles IEW is unblocking
system.cpu0.iew.iewDispatchedInsts           31192619                       # Number of instructions dispatched to IQ
system.cpu0.iew.iewDispSquashedInsts            16955                       # Number of squashed instructions skipped by dispatch
system.cpu0.iew.iewDispLoadInsts              5896786                       # Number of dispatched load instructions
system.cpu0.iew.iewDispStoreInsts              340332                       # Number of dispatched store instructions
system.cpu0.iew.iewDispNonSpecInsts              7313                       # Number of dispatched non-speculative instructions
system.cpu0.iew.iewIQFullEvents                 29413                       # Number of times the IQ has become full, causing a stall
system.cpu0.iew.iewLSQFullEvents                42540                       # Number of times the LSQ has become full, causing a stall
system.cpu0.iew.memOrderViolationEvents            32                       # Number of memory order violations
system.cpu0.iew.predictedTakenIncorrect        159490                       # Number of branches that were predicted taken incorrectly
system.cpu0.iew.predictedNotTakenIncorrect       163877                       # Number of branches that were predicted not taken incorrectly
system.cpu0.iew.branchMispredicts              323367                       # Number of branch mispredicts detected at execute
system.cpu0.iew.iewExecutedInsts             22106025                       # Number of executed instructions
system.cpu0.iew.iewExecLoadInsts              3389715                       # Number of load instructions executed
system.cpu0.iew.iewExecSquashedInsts           459039                       # Number of squashed instructions skipped in execute
system.cpu0.iew.exec_swp                            0                       # number of swp insts executed
system.cpu0.iew.exec_nop                            0                       # number of nop insts executed
system.cpu0.iew.exec_refs                     3624416                       # number of memory reference insts executed
system.cpu0.iew.exec_branches                 2702055                       # Number of branches executed
system.cpu0.iew.exec_stores                    234701                       # Number of stores executed
system.cpu0.iew.exec_rate                    0.723964                       # Inst execution rate
system.cpu0.iew.wb_sent                      21749531                       # cumulative count of insts sent to commit
system.cpu0.iew.wb_count                     21675832                       # cumulative count of insts written-back
system.cpu0.iew.wb_producers                 16126274                       # num instructions producing a value
system.cpu0.iew.wb_consumers                 25798883                       # num instructions consuming a value
system.cpu0.iew.wb_rate                      0.709876                       # insts written-back per cycle
system.cpu0.iew.wb_fanout                    0.625076                       # average fanout of values written-back
system.cpu0.commit.commitSquashedInsts       18729532                       # The number of squashed insts skipped by commit
system.cpu0.commit.branchMispredicts           291261                       # The number of times a branch was mispredicted
system.cpu0.commit.committed_per_cycle::samples     27908911                       # Number of insts commited each cycle
system.cpu0.commit.committed_per_cycle::mean     0.446606                       # Number of insts commited each cycle
system.cpu0.commit.committed_per_cycle::stdev     1.157988                       # Number of insts commited each cycle
system.cpu0.commit.committed_per_cycle::underflows            0      0.00%      0.00% # Number of insts commited each cycle
system.cpu0.commit.committed_per_cycle::0     22477876     80.54%     80.54% # Number of insts commited each cycle
system.cpu0.commit.committed_per_cycle::1      2490806      8.92%     89.46% # Number of insts commited each cycle
system.cpu0.commit.committed_per_cycle::2       609152      2.18%     91.65% # Number of insts commited each cycle
system.cpu0.commit.committed_per_cycle::3      1644842      5.89%     97.54% # Number of insts commited each cycle
system.cpu0.commit.committed_per_cycle::4       280921      1.01%     98.55% # Number of insts commited each cycle
system.cpu0.commit.committed_per_cycle::5       159900      0.57%     99.12% # Number of insts commited each cycle
system.cpu0.commit.committed_per_cycle::6        24352      0.09%     99.21% # Number of insts commited each cycle
system.cpu0.commit.committed_per_cycle::7        17145      0.06%     99.27% # Number of insts commited each cycle
system.cpu0.commit.committed_per_cycle::8       203917      0.73%    100.00% # Number of insts commited each cycle
system.cpu0.commit.committed_per_cycle::overflows            0      0.00%    100.00% # Number of insts commited each cycle
system.cpu0.commit.committed_per_cycle::min_value            0                       # Number of insts commited each cycle
system.cpu0.commit.committed_per_cycle::max_value            8                       # Number of insts commited each cycle
system.cpu0.commit.committed_per_cycle::total     27908911                       # Number of insts commited each cycle
system.cpu0.commit.committedInsts             6242145                       # Number of instructions committed
system.cpu0.commit.committedOps              12464283                       # Number of ops (including micro ops) committed
system.cpu0.commit.swp_count                        0                       # Number of s/w prefetches committed
system.cpu0.commit.refs                       2475507                       # Number of memory references committed
system.cpu0.commit.loads                      2333307                       # Number of loads committed
system.cpu0.commit.membars                          0                       # Number of memory barriers committed
system.cpu0.commit.branches                   2222263                       # Number of branches committed
system.cpu0.commit.vec_insts                        0                       # Number of committed Vector instructions.
system.cpu0.commit.fp_insts                     57196                       # Number of committed floating point instructions.
system.cpu0.commit.int_insts                 12406644                       # Number of committed integer instructions.
system.cpu0.commit.function_calls               25100                       # Number of function calls committed.
system.cpu0.commit.op_class_0::No_OpClass        17155      0.14%      0.14% # Class of committed instruction
system.cpu0.commit.op_class_0::IntAlu         9880265     79.27%     79.41% # Class of committed instruction
system.cpu0.commit.op_class_0::IntMult           1004      0.01%     79.41% # Class of committed instruction
system.cpu0.commit.op_class_0::IntDiv           41512      0.33%     79.75% # Class of committed instruction
system.cpu0.commit.op_class_0::FloatAdd         48840      0.39%     80.14% # Class of committed instruction
system.cpu0.commit.op_class_0::FloatCmp             0      0.00%     80.14% # Class of committed instruction
system.cpu0.commit.op_class_0::FloatCvt             0      0.00%     80.14% # Class of committed instruction
system.cpu0.commit.op_class_0::FloatMult            0      0.00%     80.14% # Class of committed instruction
system.cpu0.commit.op_class_0::FloatMultAcc            0      0.00%     80.14% # Class of committed instruction
system.cpu0.commit.op_class_0::FloatDiv             0      0.00%     80.14% # Class of committed instruction
system.cpu0.commit.op_class_0::FloatMisc            0      0.00%     80.14% # Class of committed instruction
system.cpu0.commit.op_class_0::FloatSqrt            0      0.00%     80.14% # Class of committed instruction
system.cpu0.commit.op_class_0::SimdAdd              0      0.00%     80.14% # Class of committed instruction
system.cpu0.commit.op_class_0::SimdAddAcc            0      0.00%     80.14% # Class of committed instruction
system.cpu0.commit.op_class_0::SimdAlu              0      0.00%     80.14% # Class of committed instruction
system.cpu0.commit.op_class_0::SimdCmp              0      0.00%     80.14% # Class of committed instruction
system.cpu0.commit.op_class_0::SimdCvt              0      0.00%     80.14% # Class of committed instruction
system.cpu0.commit.op_class_0::SimdMisc             0      0.00%     80.14% # Class of committed instruction
system.cpu0.commit.op_class_0::SimdMult             0      0.00%     80.14% # Class of committed instruction
system.cpu0.commit.op_class_0::SimdMultAcc            0      0.00%     80.14% # Class of committed instruction
system.cpu0.commit.op_class_0::SimdShift            0      0.00%     80.14% # Class of committed instruction
system.cpu0.commit.op_class_0::SimdShiftAcc            0      0.00%     80.14% # Class of committed instruction
system.cpu0.commit.op_class_0::SimdSqrt             0      0.00%     80.14% # Class of committed instruction
system.cpu0.commit.op_class_0::SimdFloatAdd            0      0.00%     80.14% # Class of committed instruction
system.cpu0.commit.op_class_0::SimdFloatAlu            0      0.00%     80.14% # Class of committed instruction
system.cpu0.commit.op_class_0::SimdFloatCmp            0      0.00%     80.14% # Class of committed instruction
system.cpu0.commit.op_class_0::SimdFloatCvt            0      0.00%     80.14% # Class of committed instruction
system.cpu0.commit.op_class_0::SimdFloatDiv            0      0.00%     80.14% # Class of committed instruction
system.cpu0.commit.op_class_0::SimdFloatMisc            0      0.00%     80.14% # Class of committed instruction
system.cpu0.commit.op_class_0::SimdFloatMult            0      0.00%     80.14% # Class of committed instruction
system.cpu0.commit.op_class_0::SimdFloatMultAcc            0      0.00%     80.14% # Class of committed instruction
system.cpu0.commit.op_class_0::SimdFloatSqrt            0      0.00%     80.14% # Class of committed instruction
system.cpu0.commit.op_class_0::MemRead        2324951     18.65%     98.79% # Class of committed instruction
system.cpu0.commit.op_class_0::MemWrite        142200      1.14%     99.93% # Class of committed instruction
system.cpu0.commit.op_class_0::FloatMemRead         8356      0.07%    100.00% # Class of committed instruction
system.cpu0.commit.op_class_0::FloatMemWrite            0      0.00%    100.00% # Class of committed instruction
system.cpu0.commit.op_class_0::IprAccess            0      0.00%    100.00% # Class of committed instruction
system.cpu0.commit.op_class_0::InstPrefetch            0      0.00%    100.00% # Class of committed instruction
system.cpu0.commit.op_class_0::total         12464283                       # Class of committed instruction
system.cpu0.commit.bw_lim_events               203917                       # number cycles where commit BW limit reached
system.cpu0.rob.rob_reads                    58898809                       # The number of ROB reads
system.cpu0.rob.rob_writes                   65018447                       # The number of ROB writes
system.cpu0.timesIdled                            347                       # Number of times that the entire CPU went into an idle state and unscheduled itself
system.cpu0.idleCycles                           2424                       # Total number of cycles that the CPU has spent unscheduled due to idling
system.cpu0.committedInsts                    6242145                       # Number of Instructions Simulated
system.cpu0.committedOps                     12464283                       # Number of Ops (including micro ops) Simulated
system.cpu0.cpi                              4.891698                       # CPI: Cycles Per Instruction
system.cpu0.cpi_total                        4.891698                       # CPI: Total CPI of All Threads
system.cpu0.ipc                              0.204428                       # IPC: Instructions Per Cycle
system.cpu0.ipc_total                        0.204428                       # IPC: Total IPC of All Threads
system.cpu0.int_regfile_reads                22319498                       # number of integer regfile reads
system.cpu0.int_regfile_writes               18772281                       # number of integer regfile writes
system.cpu0.fp_regfile_reads                   134334                       # number of floating regfile reads
system.cpu0.fp_regfile_writes                   67034                       # number of floating regfile writes
system.cpu0.cc_regfile_reads                 14416150                       # number of cc regfile reads
system.cpu0.cc_regfile_writes                 6106900                       # number of cc regfile writes
system.cpu0.misc_regfile_reads               11668602                       # number of misc regfile reads
system.cpu0.dcache.tags.pwrStateResidencyTicks::UNDEFINED  15267344125                       # Cumulative time (in ticks) in various power states
system.cpu0.dcache.tags.replacements          1223789                       # number of replacements
system.cpu0.dcache.tags.tagsinuse                 512                       # Cycle average of tags in use
system.cpu0.dcache.tags.total_refs            1431029                       # Total number of references to valid blocks.
system.cpu0.dcache.tags.sampled_refs          1223789                       # Sample count of references to valid blocks.
system.cpu0.dcache.tags.avg_refs             1.169343                       # Average number of references to valid blocks.
system.cpu0.dcache.tags.warmup_cycle                0                       # Cycle when the warmup percentage was hit.
system.cpu0.dcache.tags.occ_blocks::cpu0.data          512                       # Average occupied blocks per requestor
system.cpu0.dcache.tags.occ_percent::cpu0.data            1                       # Average percentage of cache occupancy
system.cpu0.dcache.tags.occ_percent::total            1                       # Average percentage of cache occupancy
system.cpu0.dcache.tags.occ_task_id_blocks::1024          512                       # Occupied blocks per task id
system.cpu0.dcache.tags.age_task_id_blocks_1024::0          492                       # Occupied blocks per task id
system.cpu0.dcache.tags.age_task_id_blocks_1024::1           20                       # Occupied blocks per task id
system.cpu0.dcache.tags.occ_task_id_percent::1024            1                       # Percentage of cache occupancy per task id
system.cpu0.dcache.tags.tag_accesses         15146949                       # Number of tag accesses
system.cpu0.dcache.tags.data_accesses        15146949                       # Number of data accesses
system.cpu0.dcache.pwrStateResidencyTicks::UNDEFINED  15267344125                       # Cumulative time (in ticks) in various power states
system.cpu0.dcache.ReadReq_hits::cpu0.data      1295705                       # number of ReadReq hits
system.cpu0.dcache.ReadReq_hits::total        1295705                       # number of ReadReq hits
system.cpu0.dcache.WriteReq_hits::cpu0.data       135891                       # number of WriteReq hits
system.cpu0.dcache.WriteReq_hits::total        135891                       # number of WriteReq hits
system.cpu0.dcache.demand_hits::cpu0.data      1431596                       # number of demand (read+write) hits
system.cpu0.dcache.demand_hits::total         1431596                       # number of demand (read+write) hits
system.cpu0.dcache.overall_hits::cpu0.data      1431596                       # number of overall hits
system.cpu0.dcache.overall_hits::total        1431596                       # number of overall hits
system.cpu0.dcache.ReadReq_misses::cpu0.data      2042885                       # number of ReadReq misses
system.cpu0.dcache.ReadReq_misses::total      2042885                       # number of ReadReq misses
system.cpu0.dcache.WriteReq_misses::cpu0.data         6309                       # number of WriteReq misses
system.cpu0.dcache.WriteReq_misses::total         6309                       # number of WriteReq misses
system.cpu0.dcache.demand_misses::cpu0.data      2049194                       # number of demand (read+write) misses
system.cpu0.dcache.demand_misses::total       2049194                       # number of demand (read+write) misses
system.cpu0.dcache.overall_misses::cpu0.data      2049194                       # number of overall misses
system.cpu0.dcache.overall_misses::total      2049194                       # number of overall misses
system.cpu0.dcache.ReadReq_miss_latency::cpu0.data  27846231500                       # number of ReadReq miss cycles
system.cpu0.dcache.ReadReq_miss_latency::total  27846231500                       # number of ReadReq miss cycles
system.cpu0.dcache.WriteReq_miss_latency::cpu0.data    430059976                       # number of WriteReq miss cycles
system.cpu0.dcache.WriteReq_miss_latency::total    430059976                       # number of WriteReq miss cycles
system.cpu0.dcache.demand_miss_latency::cpu0.data  28276291476                       # number of demand (read+write) miss cycles
system.cpu0.dcache.demand_miss_latency::total  28276291476                       # number of demand (read+write) miss cycles
system.cpu0.dcache.overall_miss_latency::cpu0.data  28276291476                       # number of overall miss cycles
system.cpu0.dcache.overall_miss_latency::total  28276291476                       # number of overall miss cycles
system.cpu0.dcache.ReadReq_accesses::cpu0.data      3338590                       # number of ReadReq accesses(hits+misses)
system.cpu0.dcache.ReadReq_accesses::total      3338590                       # number of ReadReq accesses(hits+misses)
system.cpu0.dcache.WriteReq_accesses::cpu0.data       142200                       # number of WriteReq accesses(hits+misses)
system.cpu0.dcache.WriteReq_accesses::total       142200                       # number of WriteReq accesses(hits+misses)
system.cpu0.dcache.demand_accesses::cpu0.data      3480790                       # number of demand (read+write) accesses
system.cpu0.dcache.demand_accesses::total      3480790                       # number of demand (read+write) accesses
system.cpu0.dcache.overall_accesses::cpu0.data      3480790                       # number of overall (read+write) accesses
system.cpu0.dcache.overall_accesses::total      3480790                       # number of overall (read+write) accesses
system.cpu0.dcache.ReadReq_miss_rate::cpu0.data     0.611901                       # miss rate for ReadReq accesses
system.cpu0.dcache.ReadReq_miss_rate::total     0.611901                       # miss rate for ReadReq accesses
system.cpu0.dcache.WriteReq_miss_rate::cpu0.data     0.044367                       # miss rate for WriteReq accesses
system.cpu0.dcache.WriteReq_miss_rate::total     0.044367                       # miss rate for WriteReq accesses
system.cpu0.dcache.demand_miss_rate::cpu0.data     0.588715                       # miss rate for demand accesses
system.cpu0.dcache.demand_miss_rate::total     0.588715                       # miss rate for demand accesses
system.cpu0.dcache.overall_miss_rate::cpu0.data     0.588715                       # miss rate for overall accesses
system.cpu0.dcache.overall_miss_rate::total     0.588715                       # miss rate for overall accesses
system.cpu0.dcache.ReadReq_avg_miss_latency::cpu0.data 13630.836538                       # average ReadReq miss latency
system.cpu0.dcache.ReadReq_avg_miss_latency::total 13630.836538                       # average ReadReq miss latency
[...]
system.l2.demand_miss_rate::cpu0.data        0.002333                       # miss rate for demand accesses
system.l2.demand_miss_rate::total            0.002334                       # miss rate for demand accesses
system.l2.overall_miss_rate::cpu0.inst       0.027778                       # miss rate for overall accesses
system.l2.overall_miss_rate::cpu0.data       0.002333                       # miss rate for overall accesses
system.l2.overall_miss_rate::total           0.002334                       # miss rate for overall accesses
system.l2.ReadExReq_avg_miss_latency::cpu0.data 260775.202355                       # average ReadExReq miss latency
system.l2.ReadExReq_avg_miss_latency::total 260775.202355                       # average ReadExReq miss latency
system.l2.ReadCleanReq_avg_miss_latency::cpu0.inst        89500                       # average ReadCleanReq miss latency
system.l2.ReadCleanReq_avg_miss_latency::total        89500                       # average ReadCleanReq miss latency
system.l2.ReadSharedReq_avg_miss_latency::cpu0.data 219514.037433                       # average ReadSharedReq miss latency
system.l2.ReadSharedReq_avg_miss_latency::total 219514.037433                       # average ReadSharedReq miss latency
system.l2.demand_avg_miss_latency::cpu0.inst        89500                       # average overall miss latency
system.l2.demand_avg_miss_latency::cpu0.data 239154.640981                       # average overall miss latency
system.l2.demand_avg_miss_latency::total 239102.240896                       # average overall miss latency
system.l2.overall_avg_miss_latency::cpu0.inst        89500                       # average overall miss latency
system.l2.overall_avg_miss_latency::cpu0.data 239154.640981                       # average overall miss latency
system.l2.overall_avg_miss_latency::total 239102.240896                       # average overall miss latency
system.l2.blocked_cycles::no_mshrs                  0                       # number of cycles access was blocked
system.l2.blocked_cycles::no_targets                0                       # number of cycles access was blocked
system.l2.blocked::no_mshrs                         0                       # number of cycles access was blocked
system.l2.blocked::no_targets                       0                       # number of cycles access was blocked
system.l2.avg_blocked_cycles::no_mshrs            nan                       # average number of cycles each access was blocked
system.l2.avg_blocked_cycles::no_targets          nan                       # average number of cycles each access was blocked
system.l2.writebacks::writebacks                  806                       # number of writebacks
system.l2.writebacks::total                       806                       # number of writebacks
system.l2.ReadExReq_mshr_misses::cpu0.data         1359                       # number of ReadExReq MSHR misses
system.l2.ReadExReq_mshr_misses::total           1359                       # number of ReadExReq MSHR misses
system.l2.ReadCleanReq_mshr_misses::cpu0.inst            1                       # number of ReadCleanReq MSHR misses
system.l2.ReadCleanReq_mshr_misses::total            1                       # number of ReadCleanReq MSHR misses
system.l2.ReadSharedReq_mshr_misses::cpu0.data         1496                       # number of ReadSharedReq MSHR misses
system.l2.ReadSharedReq_mshr_misses::total         1496                       # number of ReadSharedReq MSHR misses
system.l2.demand_mshr_misses::cpu0.inst             1                       # number of demand (read+write) MSHR misses
system.l2.demand_mshr_misses::cpu0.data          2855                       # number of demand (read+write) MSHR misses
system.l2.demand_mshr_misses::total              2856                       # number of demand (read+write) MSHR misses
system.l2.overall_mshr_misses::cpu0.inst            1                       # number of overall MSHR misses
system.l2.overall_mshr_misses::cpu0.data         2855                       # number of overall MSHR misses
system.l2.overall_mshr_misses::total             2856                       # number of overall MSHR misses
system.l2.ReadExReq_mshr_miss_latency::cpu0.data    340803500                       # number of ReadExReq MSHR miss cycles
system.l2.ReadExReq_mshr_miss_latency::total    340803500                       # number of ReadExReq MSHR miss cycles
system.l2.ReadCleanReq_mshr_miss_latency::cpu0.inst        79500                       # number of ReadCleanReq MSHR miss cycles
system.l2.ReadCleanReq_mshr_miss_latency::total        79500                       # number of ReadCleanReq MSHR miss cycles
system.l2.ReadSharedReq_mshr_miss_latency::cpu0.data    313433000                       # number of ReadSharedReq MSHR miss cycles
system.l2.ReadSharedReq_mshr_miss_latency::total    313433000                       # number of ReadSharedReq MSHR miss cycles
system.l2.demand_mshr_miss_latency::cpu0.inst        79500                       # number of demand (read+write) MSHR miss cycles
system.l2.demand_mshr_miss_latency::cpu0.data    654236500                       # number of demand (read+write) MSHR miss cycles
system.l2.demand_mshr_miss_latency::total    654316000                       # number of demand (read+write) MSHR miss cycles
system.l2.overall_mshr_miss_latency::cpu0.inst        79500                       # number of overall MSHR miss cycles
system.l2.overall_mshr_miss_latency::cpu0.data    654236500                       # number of overall MSHR miss cycles
system.l2.overall_mshr_miss_latency::total    654316000                       # number of overall MSHR miss cycles
system.l2.ReadExReq_mshr_miss_rate::cpu0.data     0.216436                       # mshr miss rate for ReadExReq accesses
system.l2.ReadExReq_mshr_miss_rate::total     0.216436                       # mshr miss rate for ReadExReq accesses
system.l2.ReadCleanReq_mshr_miss_rate::cpu0.inst     0.027778                       # mshr miss rate for ReadCleanReq accesses
system.l2.ReadCleanReq_mshr_miss_rate::total     0.027778                       # mshr miss rate for ReadCleanReq accesses
system.l2.ReadSharedReq_mshr_miss_rate::cpu0.data     0.001229                       # mshr miss rate for ReadSharedReq accesses
system.l2.ReadSharedReq_mshr_miss_rate::total     0.001229                       # mshr miss rate for ReadSharedReq accesses
system.l2.demand_mshr_miss_rate::cpu0.inst     0.027778                       # mshr miss rate for demand accesses
system.l2.demand_mshr_miss_rate::cpu0.data     0.002333                       # mshr miss rate for demand accesses
system.l2.demand_mshr_miss_rate::total       0.002334                       # mshr miss rate for demand accesses
system.l2.overall_mshr_miss_rate::cpu0.inst     0.027778                       # mshr miss rate for overall accesses
system.l2.overall_mshr_miss_rate::cpu0.data     0.002333                       # mshr miss rate for overall accesses
system.l2.overall_mshr_miss_rate::total      0.002334                       # mshr miss rate for overall accesses
system.l2.ReadExReq_avg_mshr_miss_latency::cpu0.data 250775.202355                       # average ReadExReq mshr miss latency
system.l2.ReadExReq_avg_mshr_miss_latency::total 250775.202355                       # average ReadExReq mshr miss latency
system.l2.ReadCleanReq_avg_mshr_miss_latency::cpu0.inst        79500                       # average ReadCleanReq mshr miss latency
system.l2.ReadCleanReq_avg_mshr_miss_latency::total        79500                       # average ReadCleanReq mshr miss latency
system.l2.ReadSharedReq_avg_mshr_miss_latency::cpu0.data 209514.037433                       # average ReadSharedReq mshr miss latency
system.l2.ReadSharedReq_avg_mshr_miss_latency::total 209514.037433                       # average ReadSharedReq mshr miss latency
system.l2.demand_avg_mshr_miss_latency::cpu0.inst        79500                       # average overall mshr miss latency
system.l2.demand_avg_mshr_miss_latency::cpu0.data 229154.640981                       # average overall mshr miss latency
system.l2.demand_avg_mshr_miss_latency::total 229102.240896                       # average overall mshr miss latency
system.l2.overall_avg_mshr_miss_latency::cpu0.inst        79500                       # average overall mshr miss latency
system.l2.overall_avg_mshr_miss_latency::cpu0.data 229154.640981                       # average overall mshr miss latency
system.l2.overall_avg_mshr_miss_latency::total 229102.240896                       # average overall mshr miss latency
system.membus.snoop_filter.tot_requests          5711                       # Total number of requests made to the snoop filter.
system.membus.snoop_filter.hit_single_requests         2856                       # Number of requests hitting in the snoop filter with a single holder of the requested data.
system.membus.snoop_filter.hit_multi_requests            0                       # Number of requests hitting in the snoop filter with multiple (>1) holders of the requested data.
system.membus.snoop_filter.tot_snoops               0                       # Total number of snoops made to the snoop filter.
system.membus.snoop_filter.hit_single_snoops            0                       # Number of snoops hitting in the snoop filter with a single holder of the requested data.
system.membus.snoop_filter.hit_multi_snoops            0                       # Number of snoops hitting in the snoop filter with multiple (>1) holders of the requested data.
system.membus.pwrStateResidencyTicks::UNDEFINED  15267344125                       # Cumulative time (in ticks) in various power states
system.membus.trans_dist::ReadResp               1497                       # Transaction distribution
system.membus.trans_dist::WritebackDirty          806                       # Transaction distribution
system.membus.trans_dist::CleanEvict             2049                       # Transaction distribution
system.membus.trans_dist::ReadExReq              1359                       # Transaction distribution
system.membus.trans_dist::ReadExResp             1359                       # Transaction distribution
system.membus.trans_dist::ReadSharedReq          1497                       # Transaction distribution
system.membus.pkt_count_system.l2.mem_side::system.mem_ctrls.port         8567                       # Packet count per connected master and slave (bytes)
system.membus.pkt_count_system.l2.mem_side::total         8567                       # Packet count per connected master and slave (bytes)
system.membus.pkt_count::total                   8567                       # Packet count per connected master and slave (bytes)
system.membus.pkt_size_system.l2.mem_side::system.mem_ctrls.port       234368                       # Cumulative packet size per connected master and slave (bytes)
system.membus.pkt_size_system.l2.mem_side::total       234368                       # Cumulative packet size per connected master and slave (bytes)
system.membus.pkt_size::total                  234368                       # Cumulative packet size per connected master and slave (bytes)
system.membus.snoops                                0                       # Total snoops (count)
system.membus.snoopTraffic                          0                       # Total snoop traffic (bytes)
system.membus.snoop_fanout::samples              2856                       # Request fanout histogram
system.membus.snoop_fanout::mean                    0                       # Request fanout histogram
system.membus.snoop_fanout::stdev                   0                       # Request fanout histogram
system.membus.snoop_fanout::underflows              0      0.00%      0.00% # Request fanout histogram
system.membus.snoop_fanout::0                    2856    100.00%    100.00% # Request fanout histogram
system.membus.snoop_fanout::1                       0      0.00%    100.00% # Request fanout histogram
system.membus.snoop_fanout::overflows               0      0.00%    100.00% # Request fanout histogram
system.membus.snoop_fanout::min_value               0                       # Request fanout histogram
system.membus.snoop_fanout::max_value               0                       # Request fanout histogram
system.membus.snoop_fanout::total                2856                       # Request fanout histogram
system.membus.reqLayer12.occupancy            9633000                       # Layer occupancy (ticks)
system.membus.reqLayer12.utilization              0.1                       # Layer utilization (%)
system.membus.respLayer1.occupancy           15579000                       # Layer occupancy (ticks)
system.membus.respLayer1.utilization              0.1                       # Layer utilization (%)
system.tol2bus.snoop_filter.tot_requests      2447650                       # Total number of requests made to the snoop filter.
system.tol2bus.snoop_filter.hit_single_requests      1223822                       # Number of requests hitting in the snoop filter with a single holder of the requested data.
system.tol2bus.snoop_filter.hit_multi_requests         3014                       # Number of requests hitting in the snoop filter with multiple (>1) holders of the requested data.
system.tol2bus.snoop_filter.tot_snoops              3                       # Total number of snoops made to the snoop filter.
system.tol2bus.snoop_filter.hit_single_snoops            3                       # Number of snoops hitting in the snoop filter with a single holder of the requested data.
system.tol2bus.snoop_filter.hit_multi_snoops            0                       # Number of snoops hitting in the snoop filter with multiple (>1) holders of the requested data.
system.tol2bus.pwrStateResidencyTicks::UNDEFINED  15267344125                       # Cumulative time (in ticks) in various power states
system.tol2bus.trans_dist::ReadResp           1217546                       # Transaction distribution
system.tol2bus.trans_dist::WritebackDirty      1208216                       # Transaction distribution
system.tol2bus.trans_dist::WritebackClean           36                       # Transaction distribution
system.tol2bus.trans_dist::CleanEvict           18431                       # Transaction distribution
system.tol2bus.trans_dist::ReadExReq             6279                       # Transaction distribution
system.tol2bus.trans_dist::ReadExResp            6279                       # Transaction distribution
system.tol2bus.trans_dist::ReadCleanReq            36                       # Transaction distribution
system.tol2bus.trans_dist::ReadSharedReq      1217510                       # Transaction distribution
system.tol2bus.pkt_count_system.cpu0.icache.mem_side::system.l2.cpu_side          108                       # Packet count per connected master and slave (bytes)
system.tol2bus.pkt_count_system.cpu0.dcache.mem_side::system.l2.cpu_side      3671367                       # Packet count per connected master and slave (bytes)
system.tol2bus.pkt_count::total               3671475                       # Packet count per connected master and slave (bytes)
system.tol2bus.pkt_size_system.cpu0.icache.mem_side::system.l2.cpu_side         4608                       # Cumulative packet size per connected master and slave (bytes)
system.tol2bus.pkt_size_system.cpu0.dcache.mem_side::system.l2.cpu_side    155596736                       # Cumulative packet size per connected master and slave (bytes)
system.tol2bus.pkt_size::total              155601344                       # Cumulative packet size per connected master and slave (bytes)
system.tol2bus.snoops                            2858                       # Total snoops (count)
system.tol2bus.snoopTraffic                     51584                       # Total snoop traffic (bytes)
system.tol2bus.snoop_fanout::samples          1226683                       # Request fanout histogram
system.tol2bus.snoop_fanout::mean            0.002457                       # Request fanout histogram
system.tol2bus.snoop_fanout::stdev           0.049508                       # Request fanout histogram
system.tol2bus.snoop_fanout::underflows             0      0.00%      0.00% # Request fanout histogram
system.tol2bus.snoop_fanout::0                1223669     99.75%     99.75% # Request fanout histogram
system.tol2bus.snoop_fanout::1                   3014      0.25%    100.00% # Request fanout histogram
system.tol2bus.snoop_fanout::2                      0      0.00%    100.00% # Request fanout histogram
system.tol2bus.snoop_fanout::3                      0      0.00%    100.00% # Request fanout histogram
system.tol2bus.snoop_fanout::4                      0      0.00%    100.00% # Request fanout histogram
system.tol2bus.snoop_fanout::5                      0      0.00%    100.00% # Request fanout histogram
system.tol2bus.snoop_fanout::6                      0      0.00%    100.00% # Request fanout histogram
system.tol2bus.snoop_fanout::7                      0      0.00%    100.00% # Request fanout histogram
system.tol2bus.snoop_fanout::8                      0      0.00%    100.00% # Request fanout histogram
system.tol2bus.snoop_fanout::9                      0      0.00%    100.00% # Request fanout histogram
system.tol2bus.snoop_fanout::10                     0      0.00%    100.00% # Request fanout histogram
system.tol2bus.snoop_fanout::11                     0      0.00%    100.00% # Request fanout histogram
system.tol2bus.snoop_fanout::12                     0      0.00%    100.00% # Request fanout histogram
system.tol2bus.snoop_fanout::13                     0      0.00%    100.00% # Request fanout histogram
system.tol2bus.snoop_fanout::14                     0      0.00%    100.00% # Request fanout histogram
system.tol2bus.snoop_fanout::15                     0      0.00%    100.00% # Request fanout histogram
system.tol2bus.snoop_fanout::16                     0      0.00%    100.00% # Request fanout histogram
system.tol2bus.snoop_fanout::17                     0      0.00%    100.00% # Request fanout histogram
system.tol2bus.snoop_fanout::18                     0      0.00%    100.00% # Request fanout histogram
system.tol2bus.snoop_fanout::19                     0      0.00%    100.00% # Request fanout histogram
system.tol2bus.snoop_fanout::20                     0      0.00%    100.00% # Request fanout histogram
system.tol2bus.snoop_fanout::21                     0      0.00%    100.00% # Request fanout histogram
system.tol2bus.snoop_fanout::22                     0      0.00%    100.00% # Request fanout histogram
system.tol2bus.snoop_fanout::23                     0      0.00%    100.00% # Request fanout histogram
system.tol2bus.snoop_fanout::24                     0      0.00%    100.00% # Request fanout histogram
system.tol2bus.snoop_fanout::overflows              0      0.00%    100.00% # Request fanout histogram
system.tol2bus.snoop_fanout::min_value              0                       # Request fanout histogram
system.tol2bus.snoop_fanout::max_value              1                       # Request fanout histogram
system.tol2bus.snoop_fanout::total            1226683                       # Request fanout histogram
system.tol2bus.reqLayer0.occupancy         2431271000                       # Layer occupancy (ticks)
system.tol2bus.reqLayer0.utilization             15.9                       # Layer utilization (%)
system.tol2bus.respLayer0.occupancy             54000                       # Layer occupancy (ticks)
system.tol2bus.respLayer0.utilization             0.0                       # Layer utilization (%)
system.tol2bus.respLayer1.occupancy        1835683500                       # Layer occupancy (ticks)
system.tol2bus.respLayer1.utilization            12.0                       # Layer utilization (%)

---------- End Simulation Statistics   ----------
