
---------- Begin Simulation Statistics ----------
sim_seconds                                  0.015267                       # Number of seconds simulated
sim_ticks                                 15267344125                       # Number of ticks simulated
final_tick                               3801568687125                       # Number of ticks from beginning of simulation (restored from checkpoints and never reset)
sim_freq                                 1000000000000                       # Frequency of simulated ticks
host_inst_rate                               70202674                       # Simulator instruction rate (inst/s)
host_op_rate                                130706492                       # Simulator op (including micro ops) rate (op/s)
host_tick_rate                              180347420                       # Simulator tick rate (ticks/s)
host_mem_usage                                3428828                       # Number of bytes of host memory used
host_seconds                                    84.66                       # Real time elapsed on the host
sim_insts                                  5943019063                       # Number of instructions simulated
sim_ops                                   11064981010                       # Number of ops (including micro ops) simulated
system.voltage_domain.voltage                       1                       # Voltage in Volts
system.clk_domain.clock                          1000                       # Clock period in ticks
system.mem_ctrls.pwrStateResidencyTicks::UNDEFINED  15267344125                       # Cumulative time (in ticks) in various power states
system.mem_ctrls.bytes_read::cpu0.inst            192                       # Number of bytes read from this memory
system.mem_ctrls.bytes_read::cpu0.data        5515264                       # Number of bytes read from this memory
system.mem_ctrls.bytes_read::total            5515456                       # Number of bytes read from this memory
system.mem_ctrls.bytes_inst_read::cpu0.inst          192                       # Number of instructions bytes read from this memory
system.mem_ctrls.bytes_inst_read::total           192                       # Number of instructions bytes read from this memory
system.mem_ctrls.bytes_written::writebacks       193472                       # Number of bytes written to this memory
system.mem_ctrls.bytes_written::total          193472                       # Number of bytes written to this memory
system.mem_ctrls.num_reads::cpu0.inst               3                       # Number of read requests responded to by this memory
system.mem_ctrls.num_reads::cpu0.data           86176                       # Number of read requests responded to by this memory
system.mem_ctrls.num_reads::total               86179                       # Number of read requests responded to by this memory
system.mem_ctrls.num_writes::writebacks          3023                       # Number of write requests responded to by this memory
system.mem_ctrls.num_writes::total               3023                       # Number of write requests responded to by this memory
system.mem_ctrls.bw_read::cpu0.inst             12576                       # Total read bandwidth from this memory (bytes/s)
system.mem_ctrls.bw_read::cpu0.data         361245804                       # Total read bandwidth from this memory (bytes/s)
system.mem_ctrls.bw_read::total             361258380                       # Total read bandwidth from this memory (bytes/s)
system.mem_ctrls.bw_inst_read::cpu0.inst        12576                       # Instruction read bandwidth from this memory (bytes/s)
system.mem_ctrls.bw_inst_read::total            12576                       # Instruction read bandwidth from this memory (bytes/s)
system.mem_ctrls.bw_write::writebacks        12672276                       # Write bandwidth from this memory (bytes/s)
system.mem_ctrls.bw_write::total             12672276                       # Write bandwidth from this memory (bytes/s)
system.mem_ctrls.bw_total::writebacks        12672276                       # Total bandwidth to/from this memory (bytes/s)
system.mem_ctrls.bw_total::cpu0.inst            12576                       # Total bandwidth to/from this memory (bytes/s)
system.mem_ctrls.bw_total::cpu0.data        361245804                       # Total bandwidth to/from this memory (bytes/s)
system.mem_ctrls.bw_total::total            373930656                       # Total bandwidth to/from this memory (bytes/s)
system.mem_ctrls.readReqs                       86179                       # Number of read requests accepted
system.mem_ctrls.writeReqs                       3023                       # Number of write requests accepted
system.mem_ctrls.readBursts                     86179                       # Number of DRAM read bursts, including those serviced by the write queue
system.mem_ctrls.writeBursts                     3023                       # Number of DRAM write bursts, including those merged in the write queue
system.mem_ctrls.bytesReadDRAM                5505408                       # Total number of bytes read from DRAM
system.mem_ctrls.bytesReadWrQ                   10048                       # Total number of bytes read from write queue
system.mem_ctrls.bytesWritten                  193728                       # Total number of bytes written to DRAM
system.mem_ctrls.bytesReadSys                 5515456                       # Total read bytes from the system interface side
system.mem_ctrls.bytesWrittenSys               193472                       # Total written bytes from the system interface side
system.mem_ctrls.servicedByWrQ                    157                       # Number of DRAM read bursts serviced by the write queue
system.mem_ctrls.mergedWrBursts                     0                       # Number of DRAM write bursts merged with an existing one
system.mem_ctrls.neitherReadNorWriteReqs            0                       # Number of requests that are neither read nor write
system.mem_ctrls.perBankRdBursts::0              4772                       # Per bank write bursts
system.mem_ctrls.perBankRdBursts::1              4906                       # Per bank write bursts
system.mem_ctrls.perBankRdBursts::2              5196                       # Per bank write bursts
system.mem_ctrls.perBankRdBursts::3              6215                       # Per bank write bursts
system.mem_ctrls.perBankRdBursts::4              6700                       # Per bank write bursts
system.mem_ctrls.perBankRdBursts::5              6157                       # Per bank write bursts
system.mem_ctrls.perBankRdBursts::6              5886                       # Per bank write bursts
system.mem_ctrls.perBankRdBursts::7              5530                       # Per bank write bursts
system.mem_ctrls.perBankRdBursts::8              5262                       # Per bank write bursts
system.mem_ctrls.perBankRdBursts::9              5241                       # Per bank write bursts
system.mem_ctrls.perBankRdBursts::10             5214                       # Per bank write bursts
system.mem_ctrls.perBankRdBursts::11             5233                       # Per bank write bursts
system.mem_ctrls.perBankRdBursts::12             5083                       # Per bank write bursts
system.mem_ctrls.perBankRdBursts::13             5042                       # Per bank write bursts
system.mem_ctrls.perBankRdBursts::14             4885                       # Per bank write bursts
system.mem_ctrls.perBankRdBursts::15             4700                       # Per bank write bursts
system.mem_ctrls.perBankWrBursts::0               161                       # Per bank write bursts
system.mem_ctrls.perBankWrBursts::1                84                       # Per bank write bursts
system.mem_ctrls.perBankWrBursts::2                88                       # Per bank write bursts
system.mem_ctrls.perBankWrBursts::3               100                       # Per bank write bursts
system.mem_ctrls.perBankWrBursts::4                67                       # Per bank write bursts
system.mem_ctrls.perBankWrBursts::5               138                       # Per bank write bursts
system.mem_ctrls.perBankWrBursts::6               166                       # Per bank write bursts
system.mem_ctrls.perBankWrBursts::7               186                       # Per bank write bursts
system.mem_ctrls.perBankWrBursts::8               226                       # Per bank write bursts
system.mem_ctrls.perBankWrBursts::9               257                       # Per bank write bursts
system.mem_ctrls.perBankWrBursts::10              364                       # Per bank write bursts
system.mem_ctrls.perBankWrBursts::11              381                       # Per bank write bursts
system.mem_ctrls.perBankWrBursts::12              305                       # Per bank write bursts
system.mem_ctrls.perBankWrBursts::13              227                       # Per bank write bursts
system.mem_ctrls.perBankWrBursts::14              173                       # Per bank write bursts
system.mem_ctrls.perBankWrBursts::15              104                       # Per bank write bursts
system.mem_ctrls.numRdRetry                         0                       # Number of times read queue was full causing retry
system.mem_ctrls.numWrRetry                         0                       # Number of times write queue was full causing retry
system.mem_ctrls.totGap                   15267348000                       # Total gap between requests
system.mem_ctrls.readPktSize::0                     0                       # Read request sizes (log2)
system.mem_ctrls.readPktSize::1                     0                       # Read request sizes (log2)
system.mem_ctrls.readPktSize::2                     0                       # Read request sizes (log2)
system.mem_ctrls.readPktSize::3                     0                       # Read request sizes (log2)
system.mem_ctrls.readPktSize::4                     0                       # Read request sizes (log2)
system.mem_ctrls.readPktSize::5                     0                       # Read request sizes (log2)
system.mem_ctrls.readPktSize::6                 86179                       # Read request sizes (log2)
system.mem_ctrls.writePktSize::0                    0                       # Write request sizes (log2)
system.mem_ctrls.writePktSize::1                    0                       # Write request sizes (log2)
system.mem_ctrls.writePktSize::2                    0                       # Write request sizes (log2)
system.mem_ctrls.writePktSize::3                    0                       # Write request sizes (log2)
system.mem_ctrls.writePktSize::4                    0                       # Write request sizes (log2)
system.mem_ctrls.writePktSize::5                    0                       # Write request sizes (log2)
system.mem_ctrls.writePktSize::6                 3023                       # Write request sizes (log2)
system.mem_ctrls.rdQLenPdf::0                   69989                       # What read queue length does an incoming req see
system.mem_ctrls.rdQLenPdf::1                   14679                       # What read queue length does an incoming req see
system.mem_ctrls.rdQLenPdf::2                    1273                       # What read queue length does an incoming req see
system.mem_ctrls.rdQLenPdf::3                      81                       # What read queue length does an incoming req see
system.mem_ctrls.rdQLenPdf::4                       0                       # What read queue length does an incoming req see
system.mem_ctrls.rdQLenPdf::5                       0                       # What read queue length does an incoming req see
system.mem_ctrls.rdQLenPdf::6                       0                       # What read queue length does an incoming req see
system.mem_ctrls.rdQLenPdf::7                       0                       # What read queue length does an incoming req see
system.mem_ctrls.rdQLenPdf::8                       0                       # What read queue length does an incoming req see
system.mem_ctrls.rdQLenPdf::9                       0                       # What read queue length does an incoming req see
system.mem_ctrls.rdQLenPdf::10                      0                       # What read queue length does an incoming req see
system.mem_ctrls.rdQLenPdf::11                      0                       # What read queue length does an incoming req see
system.mem_ctrls.rdQLenPdf::12                      0                       # What read queue length does an incoming req see
system.mem_ctrls.rdQLenPdf::13                      0                       # What read queue length does an incoming req see
system.mem_ctrls.rdQLenPdf::14                      0                       # What read queue length does an incoming req see
system.mem_ctrls.rdQLenPdf::15                      0                       # What read queue length does an incoming req see
system.mem_ctrls.rdQLenPdf::16                      0                       # What read queue length does an incoming req see
system.mem_ctrls.rdQLenPdf::17                      0                       # What read queue length does an incoming req see
system.mem_ctrls.rdQLenPdf::18                      0                       # What read queue length does an incoming req see
system.mem_ctrls.rdQLenPdf::19                      0                       # What read queue length does an incoming req see
system.mem_ctrls.rdQLenPdf::20                      0                       # What read queue length does an incoming req see
system.mem_ctrls.rdQLenPdf::21                      0                       # What read queue length does an incoming req see
system.mem_ctrls.rdQLenPdf::22                      0                       # What read queue length does an incoming req see
system.mem_ctrls.rdQLenPdf::23                      0                       # What read queue length does an incoming req see
system.mem_ctrls.rdQLenPdf::24                      0                       # What read queue length does an incoming req see
system.mem_ctrls.rdQLenPdf::25                      0                       # What read queue length does an incoming req see
system.mem_ctrls.rdQLenPdf::26                      0                       # What read queue length does an incoming req see
system.mem_ctrls.rdQLenPdf::27                      0                       # What read queue length does an incoming req see
system.mem_ctrls.rdQLenPdf::28                      0                       # What read queue length does an incoming req see
system.mem_ctrls.rdQLenPdf::29                      0                       # What read queue length does an incoming req see
system.mem_ctrls.rdQLenPdf::30                      0                       # What read queue length does an incoming req see
system.mem_ctrls.rdQLenPdf::31                      0                       # What read queue length does an incoming req see
system.mem_ctrls.wrQLenPdf::0                       0                       # What write queue length does an incoming req see
system.mem_ctrls.wrQLenPdf::1                       0                       # What write queue length does an incoming req see
system.mem_ctrls.wrQLenPdf::2                       0                       # What write queue length does an incoming req see
system.mem_ctrls.wrQLenPdf::3                       0                       # What write queue length does an incoming req see
system.mem_ctrls.wrQLenPdf::4                       0                       # What write queue length does an incoming req see
system.mem_ctrls.wrQLenPdf::5                       0                       # What write queue length does an incoming req see
system.mem_ctrls.wrQLenPdf::6                       0                       # What write queue length does an incoming req see
system.mem_ctrls.wrQLenPdf::7                       0                       # What write queue length does an incoming req see
system.mem_ctrls.wrQLenPdf::8                       0                       # What write queue length does an incoming req see
system.mem_ctrls.wrQLenPdf::9                       0                       # What write queue length does an incoming req see
system.mem_ctrls.wrQLenPdf::10                      0                       # What write queue length does an incoming req see
system.mem_ctrls.wrQLenPdf::11                      0                       # What write queue length does an incoming req see
system.mem_ctrls.wrQLenPdf::12                      0                       # What write queue length does an incoming req see
system.mem_ctrls.wrQLenPdf::13                      0                       # What write queue length does an incoming req see
system.mem_ctrls.wrQLenPdf::14                      0                       # What write queue length does an incoming req see
system.mem_ctrls.wrQLenPdf::15                     40                       # What write queue length does an incoming req see
system.mem_ctrls.wrQLenPdf::16                     41                       # What write queue length does an incoming req see
system.mem_ctrls.wrQLenPdf::17                    179                       # What write queue length does an incoming req see
system.mem_ctrls.wrQLenPdf::18                    184                       # What write queue length does an incoming req see
system.mem_ctrls.wrQLenPdf::19                    184                       # What write queue length does an incoming req see
system.mem_ctrls.wrQLenPdf::20                    184                       # What write queue length does an incoming req see
system.mem_ctrls.wrQLenPdf::21                    184                       # What write queue length does an incoming req see
system.mem_ctrls.wrQLenPdf::22                    184                       # What write queue length does an incoming req see
system.mem_ctrls.wrQLenPdf::23                    185                       # What write queue length does an incoming req see
system.mem_ctrls.wrQLenPdf::24                    183                       # What write queue length does an incoming req see
system.mem_ctrls.wrQLenPdf::25                    183                       # What write queue length does an incoming req see
system.mem_ctrls.wrQLenPdf::26                    183                       # What write queue length does an incoming req see
system.mem_ctrls.wrQLenPdf::27                    184                       # What write queue length does an incoming req see
system.mem_ctrls.wrQLenPdf::28                    185                       # What write queue length does an incoming req see
system.mem_ctrls.wrQLenPdf::29                    185                       # What write queue length does an incoming req see
system.mem_ctrls.wrQLenPdf::30                    185                       # What write queue length does an incoming req see
system.mem_ctrls.wrQLenPdf::31                    185                       # What write queue length does an incoming req see
system.mem_ctrls.wrQLenPdf::32                    185                       # What write queue length does an incoming req see
system.mem_ctrls.wrQLenPdf::33                      0                       # What write queue length does an incoming req see
system.mem_ctrls.wrQLenPdf::34                      0                       # What write queue length does an incoming req see
system.mem_ctrls.wrQLenPdf::35                      0                       # What write queue length does an incoming req see
system.mem_ctrls.wrQLenPdf::36                      0                       # What write queue length does an incoming req see
system.mem_ctrls.wrQLenPdf::37                      0                       # What write queue length does an incoming req see
system.mem_ctrls.wrQLenPdf::38                      0                       # What write queue length does an incoming req see
system.mem_ctrls.wrQLenPdf::39                      0                       # What write queue length does an incoming req see
system.mem_ctrls.wrQLenPdf::40                      0                       # What write queue length does an incoming req see
system.mem_ctrls.wrQLenPdf::41                      0                       # What write queue length does an incoming req see
system.mem_ctrls.wrQLenPdf::42                      0                       # What write queue length does an incoming req see
system.mem_ctrls.wrQLenPdf::43                      0                       # What write queue length does an incoming req see
system.mem_ctrls.wrQLenPdf::44                      0                       # What write queue length does an incoming req see
system.mem_ctrls.wrQLenPdf::45                      0                       # What write queue length does an incoming req see
system.mem_ctrls.wrQLenPdf::46                      0                       # What write queue length does an incoming req see
system.mem_ctrls.wrQLenPdf::47                      0                       # What write queue length does an incoming req see
system.mem_ctrls.wrQLenPdf::48                      0                       # What write queue length does an incoming req see
system.mem_ctrls.wrQLenPdf::49                      0                       # What write queue length does an incoming req see
system.mem_ctrls.wrQLenPdf::50                      0                       # What write queue length does an incoming req see
system.mem_ctrls.wrQLenPdf::51                      0                       # What write queue length does an incoming req see
system.mem_ctrls.wrQLenPdf::52                      0                       # What write queue length does an incoming req see
system.mem_ctrls.wrQLenPdf::53                      0                       # What write queue length does an incoming req see
system.mem_ctrls.wrQLenPdf::54                      0                       # What write queue length does an incoming req see
system.mem_ctrls.wrQLenPdf::55                      0                       # What write queue length does an incoming req see
system.mem_ctrls.wrQLenPdf::56                      0                       # What write queue length does an incoming req see
system.mem_ctrls.wrQLenPdf::57                      0                       # What write queue length does an incoming req see
system.mem_ctrls.wrQLenPdf::58                      0                       # What write queue length does an incoming req see
system.mem_ctrls.wrQLenPdf::59                      0                       # What write queue length does an incoming req see
system.mem_ctrls.wrQLenPdf::60                      0                       # What write queue length does an incoming req see
system.mem_ctrls.wrQLenPdf::61                      0                       # What write queue length does an incoming req see
system.mem_ctrls.wrQLenPdf::62                      0                       # What write queue length does an incoming req see
system.mem_ctrls.wrQLenPdf::63                      0                       # What write queue length does an incoming req see
system.mem_ctrls.bytesPerActivate::samples        62377                       # Bytes accessed per row activation
system.mem_ctrls.bytesPerActivate::mean     91.372140                       # Bytes accessed per row activation
system.mem_ctrls.bytesPerActivate::gmean    82.634180                       # Bytes accessed per row activation
system.mem_ctrls.bytesPerActivate::stdev    49.178200                       # Bytes accessed per row activation
system.mem_ctrls.bytesPerActivate::64-127        43526     69.78%     69.78% # Bytes accessed per row activation
system.mem_ctrls.bytesPerActivate::128-191        13189     21.14%     90.92% # Bytes accessed per row activation
system.mem_ctrls.bytesPerActivate::192-255         4078      6.54%     97.46% # Bytes accessed per row activation
system.mem_ctrls.bytesPerActivate::256-319         1162      1.86%     99.32% # Bytes accessed per row activation
system.mem_ctrls.bytesPerActivate::320-383          300      0.48%     99.80% # Bytes accessed per row activation
system.mem_ctrls.bytesPerActivate::384-447           93      0.15%     99.95% # Bytes accessed per row activation
system.mem_ctrls.bytesPerActivate::448-511           24      0.04%     99.99% # Bytes accessed per row activation
system.mem_ctrls.bytesPerActivate::512-575            3      0.00%    100.00% # Bytes accessed per row activation
system.mem_ctrls.bytesPerActivate::576-639            1      0.00%    100.00% # Bytes accessed per row activation
system.mem_ctrls.bytesPerActivate::640-703            1      0.00%    100.00% # Bytes accessed per row activation
system.mem_ctrls.bytesPerActivate::total        62377                       # Bytes accessed per row activation
system.mem_ctrls.rdPerTurnAround::samples          184                       # Reads before turning the bus around for writes
system.mem_ctrls.rdPerTurnAround::mean     466.652174                       # Reads before turning the bus around for writes
system.mem_ctrls.rdPerTurnAround::gmean    450.132670                       # Reads before turning the bus around for writes
system.mem_ctrls.rdPerTurnAround::stdev    125.924466                       # Reads before turning the bus around for writes
system.mem_ctrls.rdPerTurnAround::192-255            2      1.09%      1.09% # Reads before turning the bus around for writes
system.mem_ctrls.rdPerTurnAround::256-319           20     10.87%     11.96% # Reads before turning the bus around for writes
system.mem_ctrls.rdPerTurnAround::320-383           32     17.39%     29.35% # Reads before turning the bus around for writes
system.mem_ctrls.rdPerTurnAround::384-447           32     17.39%     46.74% # Reads before turning the bus around for writes
system.mem_ctrls.rdPerTurnAround::448-511           30     16.30%     63.04% # Reads before turning the bus around for writes
system.mem_ctrls.rdPerTurnAround::512-575           26     14.13%     77.17% # Reads before turning the bus around for writes
system.mem_ctrls.rdPerTurnAround::576-639           26     14.13%     91.30% # Reads before turning the bus around for writes
system.mem_ctrls.rdPerTurnAround::640-703           13      7.07%     98.37% # Reads before turning the bus around for writes
system.mem_ctrls.rdPerTurnAround::704-767            1      0.54%     98.91% # Reads before turning the bus around for writes
system.mem_ctrls.rdPerTurnAround::768-831            1      0.54%     99.46% # Reads before turning the bus around for writes
system.mem_ctrls.rdPerTurnAround::1024-1087            1      0.54%    100.00% # Reads before turning the bus around for writes
system.mem_ctrls.rdPerTurnAround::total           184                       # Reads before turning the bus around for writes
system.mem_ctrls.wrPerTurnAround::samples          184                       # Writes before turning the bus around for reads
system.mem_ctrls.wrPerTurnAround::mean      16.451087                       # Writes before turning the bus around for reads
system.mem_ctrls.wrPerTurnAround::gmean     16.430032                       # Writes before turning the bus around for reads
system.mem_ctrls.wrPerTurnAround::stdev      0.854304                       # Writes before turning the bus around for reads
system.mem_ctrls.wrPerTurnAround::16              143     77.72%     77.72% # Writes before turning the bus around for reads
system.mem_ctrls.wrPerTurnAround::17                1      0.54%     78.26% # Writes before turning the bus around for reads
system.mem_ctrls.wrPerTurnAround::18               38     20.65%     98.91% # Writes before turning the bus around for reads
system.mem_ctrls.wrPerTurnAround::19                2      1.09%    100.00% # Writes before turning the bus around for reads
system.mem_ctrls.wrPerTurnAround::total           184                       # Writes before turning the bus around for reads
system.mem_ctrls.totQLat                   2481881000                       # Total ticks spent queuing
system.mem_ctrls.totMemAccLat              4094793500                       # Total ticks spent from burst creation until serviced by the DRAM
system.mem_ctrls.totBusLat                  430110000                       # Total ticks spent in databus transfers
system.mem_ctrls.avgQLat                     28851.70                       # Average queueing delay per DRAM burst
system.mem_ctrls.avgBusLat                    5000.00                       # Average bus latency per DRAM burst
system.mem_ctrls.avgMemAccLat                47601.70                       # Average memory access latency per DRAM burst
system.mem_ctrls.avgRdBW                       360.60                       # Average DRAM read bandwidth in MiByte/s
system.mem_ctrls.avgWrBW                        12.69                       # Average achieved write bandwidth in MiByte/s
system.mem_ctrls.avgRdBWSys                    361.26                       # Average system read bandwidth in MiByte/s
system.mem_ctrls.avgWrBWSys                     12.67                       # Average system write bandwidth in MiByte/s
system.mem_ctrls.peakBW                      12800.00                       # Theoretical peak bandwidth in MiByte/s
system.mem_ctrls.busUtil                         2.92                       # Data bus utilization in percentage
system.mem_ctrls.busUtilRead                     2.82                       # Data bus utilization in percentage for reads
system.mem_ctrls.busUtilWrite                    0.10                       # Data bus utilization in percentage for writes
system.mem_ctrls.avgRdQLen                       1.15                       # Average read queue length when enqueuing
system.mem_ctrls.avgWrQLen                      25.14                       # Average write queue length when enqueuing
system.mem_ctrls.readRowHits                    25978                       # Number of row buffer hits during reads
system.mem_ctrls.writeRowHits                     698                       # Number of row buffer hits during writes
system.mem_ctrls.readRowHitRate                 30.20                       # Row buffer hit rate for reads
system.mem_ctrls.writeRowHitRate                23.09                       # Row buffer hit rate for writes
system.mem_ctrls.avgGap                     171154.77                       # Average gap between requests
system.mem_ctrls.pageHitRate                    29.96                       # Row buffer hit rate, read and write combined
system.mem_ctrls_0.actEnergy                231236040                       # Energy for activate commands per rank (pJ)
system.mem_ctrls_0.preEnergy                122912460                       # Energy for precharge commands per rank (pJ)
system.mem_ctrls_0.readEnergy               323884680                       # Energy for read commands per rank (pJ)
system.mem_ctrls_0.writeEnergy                5167800                       # Energy for write commands per rank (pJ)
system.mem_ctrls_0.refreshEnergy         1226206800.000000                       # Energy for refresh commands per rank (pJ)
system.mem_ctrls_0.actBackEnergy           1013918850                       # Energy for active background per rank (pJ)
system.mem_ctrls_0.preBackEnergy             33500160                       # Energy for precharge background per rank (pJ)
system.mem_ctrls_0.actPowerDownEnergy      4913026650                       # Energy for active power-down per rank (pJ)
system.mem_ctrls_0.prePowerDownEnergy       700900800                       # Energy for precharge power-down per rank (pJ)
system.mem_ctrls_0.selfRefreshEnergy        133209540                       # Energy for self refresh per rank (pJ)
system.mem_ctrls_0.totalEnergy             8703985170                       # Total energy per rank (pJ)
system.mem_ctrls_0.averagePower            570.104735                       # Core power per rank (mW)
system.mem_ctrls_0.totalIdleTime          12955387000                       # Total Idle time Per DRAM Rank
system.mem_ctrls_0.memoryStateTime::IDLE     32547000                       # Time in different power states
system.mem_ctrls_0.memoryStateTime::REF     519234000                       # Time in different power states
system.mem_ctrls_0.memoryStateTime::SREF    357100500                       # Time in different power states
system.mem_ctrls_0.memoryStateTime::PRE_PDN   1825297750                       # Time in different power states
system.mem_ctrls_0.memoryStateTime::ACT    1759164750                       # Time in different power states
system.mem_ctrls_0.memoryStateTime::ACT_PDN  10774000125                       # Time in different power states
system.mem_ctrls_1.actEnergy                214107180                       # Energy for activate commands per rank (pJ)
system.mem_ctrls_1.preEnergy                113808255                       # Energy for precharge commands per rank (pJ)
system.mem_ctrls_1.readEnergy               290312400                       # Energy for read commands per rank (pJ)
system.mem_ctrls_1.writeEnergy               10633140                       # Energy for write commands per rank (pJ)
system.mem_ctrls_1.refreshEnergy         1224362880.000000                       # Energy for refresh commands per rank (pJ)
system.mem_ctrls_1.actBackEnergy            943283880                       # Energy for active background per rank (pJ)
system.mem_ctrls_1.preBackEnergy             33161280                       # Energy for precharge background per rank (pJ)
system.mem_ctrls_1.actPowerDownEnergy      4846728240                       # Energy for active power-down per rank (pJ)
system.mem_ctrls_1.prePowerDownEnergy       809911200                       # Energy for precharge power-down per rank (pJ)
system.mem_ctrls_1.selfRefreshEnergy        136807800                       # Energy for self refresh per rank (pJ)
system.mem_ctrls_1.totalEnergy             8623370505                       # Total energy per rank (pJ)
system.mem_ctrls_1.averagePower            564.824532                       # Core power per rank (mW)
system.mem_ctrls_1.totalIdleTime          13111710250                       # Total Idle time Per DRAM Rank
system.mem_ctrls_1.memoryStateTime::IDLE     32574000                       # Time in different power states
system.mem_ctrls_1.memoryStateTime::REF     518442000                       # Time in different power states
system.mem_ctrls_1.memoryStateTime::SREF    373884250                       # Time in different power states
system.mem_ctrls_1.memoryStateTime::PRE_PDN   2109187250                       # Time in different power states
system.mem_ctrls_1.memoryStateTime::ACT    1604450750                       # Time in different power states
system.mem_ctrls_1.memoryStateTime::ACT_PDN  10628805875                       # Time in different power states
system.pwrStateResidencyTicks::UNDEFINED  15267344125                       # Cumulative time (in ticks) in various power states
system.cpu0.branchPred.lookups                4576494                       # Number of BP lookups
system.cpu0.branchPred.condPredicted          4576494                       # Number of conditional branches predicted
system.cpu0.branchPred.condIncorrect           188855                       # Number of conditional branches incorrect
system.cpu0.branchPred.BTBLookups             3722887                       # Number of BTB lookups
system.cpu0.branchPred.BTBHits                      0                       # Number of BTB hits
system.cpu0.branchPred.BTBCorrect                   0                       # Number of correct BTB predictions (this stat may not work properly.
system.cpu0.branchPred.BTBHitPct             0.000000                       # BTB Hit Percentage
system.cpu0.branchPred.usedRAS                 110932                       # Number of times the RAS was used to get a target.
system.cpu0.branchPred.RASInCorrect             15503                       # Number of incorrect RAS predictions.
system.cpu0.branchPred.indirectLookups        3722887                       # Number of indirect predictor lookups.
system.cpu0.branchPred.indirectHits           1968453                       # Number of indirect target hits.
system.cpu0.branchPred.indirectMisses         1754434                       # Number of indirect misses.
system.cpu0.branchPredindirectMispredicted        64293                       # Number of mispredicted indirect branches.
system.cpu_voltage_domain.voltage                   1                       # Voltage in Volts
system.cpu_clk_domain.clock                       500                       # Clock period in ticks
system.cpu0.dtb.walker.pwrStateResidencyTicks::UNDEFINED  15267344125                       # Cumulative time (in ticks) in various power states
system.cpu0.dtb.rdAccesses                    2224848                       # TLB accesses on read requests
system.cpu0.dtb.wrAccesses                     127726                       # TLB accesses on write requests
system.cpu0.dtb.rdMisses                       476354                       # TLB misses on read requests
system.cpu0.dtb.wrMisses                         2480                       # TLB misses on write requests
system.cpu0.apic_clk_domain.clock                8000                       # Clock period in ticks
system.cpu0.interrupts.pwrStateResidencyTicks::UNDEFINED  15267344125                       # Cumulative time (in ticks) in various power states
system.cpu0.itb.walker.pwrStateResidencyTicks::UNDEFINED  15267344125                       # Cumulative time (in ticks) in various power states
system.cpu0.itb.rdAccesses                          0                       # TLB accesses on read requests
system.cpu0.itb.wrAccesses                    3839869                       # TLB accesses on write requests
system.cpu0.itb.rdMisses                            0                       # TLB misses on read requests
system.cpu0.itb.wrMisses                        12591                       # TLB misses on write requests
system.cpu0.workload.numSyscalls                    0                       # Number of system calls
system.cpu0.pwrStateResidencyTicks::ON    15267344125                       # Cumulative time (in ticks) in various power states
system.cpu0.numCycles                        30534688                       # number of cpu cycles simulated
system.cpu0.numWorkItemsStarted                     0                       # number of work items this cpu started
system.cpu0.numWorkItemsCompleted                   0                       # number of work items this cpu completed
system.cpu0.fetch.icacheStallCycles           3920357                       # Number of cycles fetch is stalled on an Icache miss
system.cpu0.fetch.Insts                      13091751                       # Number of instructions fetch has processed
system.cpu0.fetch.Branches                    4576494                       # Number of branches that fetch encountered
system.cpu0.fetch.predictedBranches           2079385                       # Number of branches that fetch has predicted taken
system.cpu0.fetch.Cycles                     26289621                       # Number of cycles fetch has run and was not squashing or blocked
system.cpu0.fetch.SquashCycles                 385470                       # Number of cycles fetch has spent squashing
system.cpu0.fetch.TlbCycles                      2225                       # Number of cycles fetch has spent waiting for tlb
system.cpu0.fetch.MiscStallCycles                2743                       # Number of cycles fetch has spent waiting on interrupts, or bad addresses, or out of MSHRs
system.cpu0.fetch.PendingTrapStallCycles        97683                       # Number of stall cycles due to pending traps
system.cpu0.fetch.PendingQuiesceStallCycles            1                       # Number of stall cycles due to pending quiesce instructions
system.cpu0.fetch.CacheLines                  3827278                       # Number of cache lines fetched
system.cpu0.fetch.IcacheSquashes                30833                       # Number of outstanding Icache misses that were squashed
system.cpu0.fetch.ItlbSquashes                     13                       # Number of outstanding ITLB misses that were squashed
system.cpu0.fetch.rateDist::samples          30505365                       # Number of instructions fetched each cycle (Total)
system.cpu0.fetch.rateDist::mean             0.862378                       # Number of instructions fetched each cycle (Total)
system.cpu0.fetch.rateDist::stdev            2.235422                       # Number of instructions fetched each cycle (Total)
system.cpu0.fetch.rateDist::underflows              0      0.00%      0.00% # Number of instructions fetched each cycle (Total)
system.cpu0.fetch.rateDist::0                25385053     83.22%     83.22% # Number of instructions fetched each cycle (Total)
system.cpu0.fetch.rateDist::1                   73014      0.24%     83.45% # Number of instructions fetched each cycle (Total)
system.cpu0.fetch.rateDist::2                 1911105      6.26%     89.72% # Number of instructions fetched each cycle (Total)
system.cpu0.fetch.rateDist::3                   64328      0.21%     89.93% # Number of instructions fetched each cycle (Total)
system.cpu0.fetch.rateDist::4                  352948      1.16%     91.09% # Number of instructions fetched each cycle (Total)
system.cpu0.fetch.rateDist::5                  148248      0.49%     91.57% # Number of instructions fetched each cycle (Total)
system.cpu0.fetch.rateDist::6                  222222      0.73%     92.30% # Number of instructions fetched each cycle (Total)
system.cpu0.fetch.rateDist::7                   55000      0.18%     92.48% # Number of instructions fetched each cycle (Total)
system.cpu0.fetch.rateDist::8                 2293447      7.52%    100.00% # Number of instructions fetched each cycle (Total)
system.cpu0.fetch.rateDist::overflows               0      0.00%    100.00% # Number of instructions fetched each cycle (Total)
system.cpu0.fetch.rateDist::min_value               0                       # Number of instructions fetched each cycle (Total)
system.cpu0.fetch.rateDist::max_value               8                       # Number of instructions fetched each cycle (Total)
system.cpu0.fetch.rateDist::total            30505365                       # Number of instructions fetched each cycle (Total)
system.cpu0.fetch.branchRate                 0.149879                       # Number of branch fetches per cycle
system.cpu0.fetch.rate                       0.428750                       # Number of inst fetches per cycle
system.cpu0.decode.IdleCycles                 2041076                       # Number of cycles decode is idle
system.cpu0.decode.BlockedCycles             24791371                       # Number of cycles decode is blocked
system.cpu0.decode.RunCycles                  2633231                       # Number of cycles decode is running
system.cpu0.decode.UnblockCycles               846952                       # Number of cycles decode is unblocking
system.cpu0.decode.SquashCycles                192735                       # Number of cycles decode is squashing
system.cpu0.decode.DecodedInsts              22297228                       # Number of instructions handled by decode
system.cpu0.rename.SquashCycles                192735                       # Number of cycles rename is squashing
system.cpu0.rename.IdleCycles                 2348268                       # Number of cycles rename is idle
system.cpu0.rename.BlockCycles               21905656                       # Number of cycles rename is blocking
system.cpu0.rename.serializeStallCycles         39886                       # count of cycles rename stalled for serializing inst
system.cpu0.rename.RunCycles                  2999738                       # Number of cycles rename is running
system.cpu0.rename.UnblockCycles              3019082                       # Number of cycles rename is unblocking
system.cpu0.rename.RenamedInsts              21442271                       # Number of instructions processed by rename
system.cpu0.rename.ROBFullEvents                69565                       # Number of times rename has blocked due to ROB full
system.cpu0.rename.IQFullEvents               2667558                       # Number of times rename has blocked due to IQ full
system.cpu0.rename.LQFullEvents                179590                       # Number of times rename has blocked due to LQ full
system.cpu0.rename.SQFullEvents                 32903                       # Number of times rename has blocked due to SQ full
system.cpu0.rename.RenamedOperands           25570680                       # Number of destination operands rename has renamed
system.cpu0.rename.RenameLookups             59842604                       # Number of register rename lookups that rename has made
system.cpu0.rename.int_rename_lookups        27904339                       # Number of integer rename lookups
system.cpu0.rename.fp_rename_lookups            96577                       # Number of floating rename lookups
system.cpu0.rename.CommittedMaps              9486339                       # Number of HB maps that are committed
system.cpu0.rename.UndoneMaps                16084431                       # Number of HB maps that are undone due to squashing
system.cpu0.rename.serializingInsts              1065                       # count of serializing insts renamed
system.cpu0.rename.tempSerializingInsts          1225                       # count of temporary serializing insts renamed
system.cpu0.rename.skidInsts                  5249412                       # count of insts added to the skid buffer
system.cpu0.memDep0.insertedLoads             3883738                       # Number of loads inserted to the mem dependence unit.
system.cpu0.memDep0.insertedStores             191773                       # Number of stores inserted to the mem dependence unit.
system.cpu0.memDep0.conflictingLoads            12081                       # Number of conflicting loads.
system.cpu0.memDep0.conflictingStores           12506                       # Number of conflicting stores.
system.cpu0.iq.iqInstsAdded                  20347499                       # Number of instructions added to the IQ (excludes non-spec)
system.cpu0.iq.iqNonSpecInstsAdded              12354                       # Number of non-speculative instructions added to the IQ
system.cpu0.iq.iqInstsIssued                 14664084                       # Number of instructions issued
system.cpu0.iq.iqSquashedInstsIssued            19014                       # Number of squashed instructions issued
system.cpu0.iq.iqSquashedInstsExamined       12451989                       # Number of squashed instructions iterated over during squash; mainly for profiling
system.cpu0.iq.iqSquashedOperandsExamined     26431066                       # Number of squashed operands that are examined and possibly removed from graph
system.cpu0.iq.iqSquashedNonSpecRemoved         12354                       # Number of squashed non-spec instructions that were removed
system.cpu0.iq.issued_per_cycle::samples     30505365                       # Number of insts issued each cycle
system.cpu0.iq.issued_per_cycle::mean        0.480705                       # Number of insts issued each cycle
system.cpu0.iq.issued_per_cycle::stdev       1.220411                       # Number of insts issued each cycle
system.cpu0.iq.issued_per_cycle::underflows            0      0.00%      0.00% # Number of insts issued each cycle
system.cpu0.iq.issued_per_cycle::0           24692832     80.95%     80.95% # Number of insts issued each cycle
system.cpu0.iq.issued_per_cycle::1            2171396      7.12%     88.06% # Number of insts issued each cycle
system.cpu0.iq.issued_per_cycle::2            1222170      4.01%     92.07% # Number of insts issued each cycle
system.cpu0.iq.issued_per_cycle::3             857039      2.81%     94.88% # Number of insts issued each cycle
system.cpu0.iq.issued_per_cycle::4             896514      2.94%     97.82% # Number of insts issued each cycle
system.cpu0.iq.issued_per_cycle::5             304093      1.00%     98.82% # Number of insts issued each cycle
system.cpu0.iq.issued_per_cycle::6             218623      0.72%     99.53% # Number of insts issued each cycle
system.cpu0.iq.issued_per_cycle::7              82612      0.27%     99.80% # Number of insts issued each cycle
system.cpu0.iq.issued_per_cycle::8              60086      0.20%    100.00% # Number of insts issued each cycle
system.cpu0.iq.issued_per_cycle::overflows            0      0.00%    100.00% # Number of insts issued each cycle
system.cpu0.iq.issued_per_cycle::min_value            0                       # Number of insts issued each cycle
system.cpu0.iq.issued_per_cycle::max_value            8                       # Number of insts issued each cycle
system.cpu0.iq.issued_per_cycle::total       30505365                       # Number of insts issued each cycle
system.cpu0.iq.fu_full::No_OpClass                  0      0.00%      0.00% # attempts to use FU when none available
system.cpu0.iq.fu_full::IntAlu                  31739     71.06%     71.06% # attempts to use FU when none available
system.cpu0.iq.fu_full::IntMult                     0      0.00%     71.06% # attempts to use FU when none available
system.cpu0.iq.fu_full::IntDiv                      0      0.00%     71.06% # attempts to use FU when none available
system.cpu0.iq.fu_full::FloatAdd                 2878      6.44%     77.50% # attempts to use FU when none available
system.cpu0.iq.fu_full::FloatCmp                    0      0.00%     77.50% # attempts to use FU when none available
system.cpu0.iq.fu_full::FloatCvt                    0      0.00%     77.50% # attempts to use FU when none available
system.cpu0.iq.fu_full::FloatMult                   0      0.00%     77.50% # attempts to use FU when none available
system.cpu0.iq.fu_full::FloatMultAcc                0      0.00%     77.50% # attempts to use FU when none available
system.cpu0.iq.fu_full::FloatDiv                    0      0.00%     77.50% # attempts to use FU when none available
system.cpu0.iq.fu_full::FloatMisc                   0      0.00%     77.50% # attempts to use FU when none available
system.cpu0.iq.fu_full::FloatSqrt                   0      0.00%     77.50% # attempts to use FU when none available
system.cpu0.iq.fu_full::SimdAdd                     0      0.00%     77.50% # attempts to use FU when none available
system.cpu0.iq.fu_full::SimdAddAcc                  0      0.00%     77.50% # attempts to use FU when none available
system.cpu0.iq.fu_full::SimdAlu                     0      0.00%     77.50% # attempts to use FU when none available
system.cpu0.iq.fu_full::SimdCmp                     0      0.00%     77.50% # attempts to use FU when none available
system.cpu0.iq.fu_full::SimdCvt                     0      0.00%     77.50% # attempts to use FU when none available
system.cpu0.iq.fu_full::SimdMisc                    0      0.00%     77.50% # attempts to use FU when none available
system.cpu0.iq.fu_full::SimdMult                    0      0.00%     77.50% # attempts to use FU when none available
system.cpu0.iq.fu_full::SimdMultAcc                 0      0.00%     77.50% # attempts to use FU when none available
system.cpu0.iq.fu_full::SimdShift                   0      0.00%     77.50% # attempts to use FU when none available
system.cpu0.iq.fu_full::SimdShiftAcc                0      0.00%     77.50% # attempts to use FU when none available
system.cpu0.iq.fu_full::SimdSqrt                    0      0.00%     77.50% # attempts to use FU when none available
system.cpu0.iq.fu_full::SimdFloatAdd                0      0.00%     77.50% # attempts to use FU when none available
system.cpu0.iq.fu_full::SimdFloatAlu                0      0.00%     77.50% # attempts to use FU when none available
system.cpu0.iq.fu_full::SimdFloatCmp                0      0.00%     77.50% # attempts to use FU when none available
system.cpu0.iq.fu_full::SimdFloatCvt                0      0.00%     77.50% # attempts to use FU when none available
system.cpu0.iq.fu_full::SimdFloatDiv                0      0.00%     77.50% # attempts to use FU when none available
system.cpu0.iq.fu_full::SimdFloatMisc               0      0.00%     77.50% # attempts to use FU when none available
system.cpu0.iq.fu_full::SimdFloatMult               0      0.00%     77.50% # attempts to use FU when none available
system.cpu0.iq.fu_full::SimdFloatMultAcc            0      0.00%     77.50% # attempts to use FU when none available
system.cpu0.iq.fu_full::SimdFloatSqrt               0      0.00%     77.50% # attempts to use FU when none available
system.cpu0.iq.fu_full::MemRead                  8783     19.66%     97.17% # attempts to use FU when none available
system.cpu0.iq.fu_full::MemWrite                  813      1.82%     98.99% # attempts to use FU when none available
system.cpu0.iq.fu_full::FloatMemRead              271      0.61%     99.59% # attempts to use FU when none available
system.cpu0.iq.fu_full::FloatMemWrite             182      0.41%    100.00% # attempts to use FU when none available
system.cpu0.iq.fu_full::IprAccess                   0      0.00%    100.00% # attempts to use FU when none available
system.cpu0.iq.fu_full::InstPrefetch                0      0.00%    100.00% # attempts to use FU when none available
system.cpu0.iq.FU_type_0::No_OpClass            46601      0.32%      0.32% # Type of FU issued
system.cpu0.iq.FU_type_0::IntAlu             12063520     82.27%     82.58% # Type of FU issued
system.cpu0.iq.FU_type_0::IntMult                2586      0.02%     82.60% # Type of FU issued
system.cpu0.iq.FU_type_0::IntDiv                24982      0.17%     82.77% # Type of FU issued
system.cpu0.iq.FU_type_0::FloatAdd              36012      0.25%     83.02% # Type of FU issued
system.cpu0.iq.FU_type_0::FloatCmp                  0      0.00%     83.02% # Type of FU issued
system.cpu0.iq.FU_type_0::FloatCvt                  0      0.00%     83.02% # Type of FU issued
system.cpu0.iq.FU_type_0::FloatMult                 0      0.00%     83.02% # Type of FU issued
system.cpu0.iq.FU_type_0::FloatMultAcc              0      0.00%     83.02% # Type of FU issued
system.cpu0.iq.FU_type_0::FloatDiv                  0      0.00%     83.02% # Type of FU issued
system.cpu0.iq.FU_type_0::FloatMisc                 0      0.00%     83.02% # Type of FU issued
system.cpu0.iq.FU_type_0::FloatSqrt                 0      0.00%     83.02% # Type of FU issued
system.cpu0.iq.FU_type_0::SimdAdd                   0      0.00%     83.02% # Type of FU issued
system.cpu0.iq.FU_type_0::SimdAddAcc                0      0.00%     83.02% # Type of FU issued
system.cpu0.iq.FU_type_0::SimdAlu                   0      0.00%     83.02% # Type of FU issued
system.cpu0.iq.FU_type_0::SimdCmp                   0      0.00%     83.02% # Type of FU issued
system.cpu0.iq.FU_type_0::SimdCvt                   0      0.00%     83.02% # Type of FU issued
system.cpu0.iq.FU_type_0::SimdMisc                  0      0.00%     83.02% # Type of FU issued
system.cpu0.iq.FU_type_0::SimdMult                  0      0.00%     83.02% # Type of FU issued
system.cpu0.iq.FU_type_0::SimdMultAcc               0      0.00%     83.02% # Type of FU issued
system.cpu0.iq.FU_type_0::SimdShift                 0      0.00%     83.02% # Type of FU issued
system.cpu0.iq.FU_type_0::SimdShiftAcc              0      0.00%     83.02% # Type of FU issued
system.cpu0.iq.FU_type_0::SimdSqrt                  0      0.00%     83.02% # Type of FU issued
system.cpu0.iq.FU_type_0::SimdFloatAdd              0      0.00%     83.02% # Type of FU issued
system.cpu0.iq.FU_type_0::SimdFloatAlu              0      0.00%     83.02% # Type of FU issued
system.cpu0.iq.FU_type_0::SimdFloatCmp              0      0.00%     83.02% # Type of FU issued
system.cpu0.iq.FU_type_0::SimdFloatCvt              0      0.00%     83.02% # Type of FU issued
system.cpu0.iq.FU_type_0::SimdFloatDiv              0      0.00%     83.02% # Type of FU issued
system.cpu0.iq.FU_type_0::SimdFloatMisc             0      0.00%     83.02% # Type of FU issued
system.cpu0.iq.FU_type_0::SimdFloatMult             0      0.00%     83.02% # Type of FU issued
system.cpu0.iq.FU_type_0::SimdFloatMultAcc            0      0.00%     83.02% # Type of FU issued
system.cpu0.iq.FU_type_0::SimdFloatSqrt             0      0.00%     83.02% # Type of FU issued
system.cpu0.iq.FU_type_0::MemRead             2345813     16.00%     99.01% # Type of FU issued
system.cpu0.iq.FU_type_0::MemWrite             137619      0.94%     99.95% # Type of FU issued
system.cpu0.iq.FU_type_0::FloatMemRead           6249      0.04%    100.00% # Type of FU issued
system.cpu0.iq.FU_type_0::FloatMemWrite           702      0.00%    100.00% # Type of FU issued
system.cpu0.iq.FU_type_0::IprAccess                 0      0.00%    100.00% # Type of FU issued
system.cpu0.iq.FU_type_0::InstPrefetch              0      0.00%    100.00% # Type of FU issued
system.cpu0.iq.FU_type_0::total              14664084                       # Type of FU issued
system.cpu0.iq.rate                          0.480243                       # Inst issue rate
system.cpu0.iq.fu_busy_cnt                      44666                       # FU busy when requested
system.cpu0.iq.fu_busy_rate                  0.003046                       # FU busy rate (busy events/executed inst)
system.cpu0.iq.int_inst_queue_reads          59807213                       # Number of integer instruction queue reads
system.cpu0.iq.int_inst_queue_writes         32729705                       # Number of integer instruction queue writes
system.cpu0.iq.int_inst_queue_wakeup_accesses     14030792                       # Number of integer instruction queue wakeup accesses
system.cpu0.iq.fp_inst_queue_reads              90000                       # Number of floating instruction queue reads
system.cpu0.iq.fp_inst_queue_writes             82154                       # Number of floating instruction queue writes
system.cpu0.iq.fp_inst_queue_wakeup_accesses        39477                       # Number of floating instruction queue wakeup accesses
system.cpu0.iq.vec_inst_queue_reads                 0                       # Number of vector instruction queue reads
system.cpu0.iq.vec_inst_queue_writes                0                       # Number of vector instruction queue writes
system.cpu0.iq.vec_inst_queue_wakeup_accesses            0                       # Number of vector instruction queue wakeup accesses
system.cpu0.iq.int_alu_accesses              14615793                       # Number of integer alu accesses
system.cpu0.iq.fp_alu_accesses                  46356                       # Number of floating point alu accesses
system.cpu0.iq.vec_alu_accesses                     0                       # Number of vector alu accesses
system.cpu0.iew.lsq.thread0.forwLoads           11040                       # Number of loads that had data forwarded from stores
system.cpu0.iew.lsq.thread0.invAddrLoads            0                       # Number of loads ignored due to an invalid address
system.cpu0.iew.lsq.thread0.squashedLoads      2384440                       # Number of loads squashed
system.cpu0.iew.lsq.thread0.ignoredResponses          393                       # Number of memory responses ignored because the instruction is squashed
system.cpu0.iew.lsq.thread0.memOrderViolation           18                       # Number of memory ordering violations
system.cpu0.iew.lsq.thread0.squashedStores       120528                       # Number of stores squashed
system.cpu0.iew.lsq.thread0.invAddrSwpfs            0                       # Number of software prefetches ignored due to an invalid address
system.cpu0.iew.lsq.thread0.blockedLoads            0                       # Number of blocked loads due to partial load-store forwarding
system.cpu0.iew.lsq.thread0.rescheduledLoads           72                       # Number of loads that were rescheduled
system.cpu0.iew.lsq.thread0.cacheBlocked         6142                       # Number of times an access to memory failed due to the cache being blocked
system.cpu0.iew.iewIdleCycles                       0                       # Number of cycles IEW is idle
system.cpu0.iew.iewSquashCycles                192735                       # Number of cycles IEW is squashing
system.cpu0.iew.iewBlockCycles               18966891                       # Number of cycles IEW is blocking
system.cpu0.iew.iewUnblockCycles               518382                       # Number of cycles IEW is unblocking
system.cpu0.iew.iewDispatchedInsts           20359853                       # Number of instructions dispatched to IQ
system.cpu0.iew.iewDispSquashedInsts            11096                       # Number of squashed instructions skipped by dispatch
system.cpu0.iew.iewDispLoadInsts              3883738                       # Number of dispatched load instructions
system.cpu0.iew.iewDispStoreInsts              191773                       # Number of dispatched store instructions
system.cpu0.iew.iewDispNonSpecInsts              4720                       # Number of dispatched non-speculative instructions
system.cpu0.iew.iewIQFullEvents                 39680                       # Number of times the IQ has become full, causing a stall
system.cpu0.iew.iewLSQFullEvents                48636                       # Number of times the LSQ has become full, causing a stall
system.cpu0.iew.memOrderViolationEvents            18                       # Number of memory order violations
system.cpu0.iew.predictedTakenIncorrect        100369                       # Number of branches that were predicted taken incorrectly
system.cpu0.iew.predictedNotTakenIncorrect       112169                       # Number of branches that were predicted not taken incorrectly
system.cpu0.iew.branchMispredicts              212538                       # Number of branch mispredicts detected at execute
system.cpu0.iew.iewExecutedInsts             14364573                       # Number of executed instructions
system.cpu0.iew.iewExecLoadInsts              2224172                       # Number of load instructions executed
system.cpu0.iew.iewExecSquashedInsts           299511                       # Number of squashed instructions skipped in execute
system.cpu0.iew.exec_swp                            0                       # number of swp insts executed
system.cpu0.iew.exec_nop                            0                       # number of nop insts executed
system.cpu0.iew.exec_refs                     2351860                       # number of memory reference insts executed
system.cpu0.iew.exec_branches                 1768755                       # Number of branches executed
system.cpu0.iew.exec_stores                    127688                       # Number of stores executed
system.cpu0.iew.exec_rate                    0.470435                       # Inst execution rate
system.cpu0.iew.wb_sent                      14117487                       # cumulative count of insts sent to commit
system.cpu0.iew.wb_count                     14070269                       # cumulative count of insts written-back
system.cpu0.iew.wb_producers                 10512150                       # num instructions producing a value
system.cpu0.iew.wb_consumers                 16634787                       # num instructions consuming a value
system.cpu0.iew.wb_rate                      0.460796                       # insts written-back per cycle
system.cpu0.iew.wb_fanout                    0.631938                       # average fanout of values written-back
system.cpu0.commit.commitSquashedInsts       12452905                       # The number of squashed insts skipped by commit
system.cpu0.commit.branchMispredicts           192724                       # The number of times a branch was mispredicted
system.cpu0.commit.committed_per_cycle::samples     28757832                       # Number of insts commited each cycle
system.cpu0.commit.committed_per_cycle::mean     0.274984                       # Number of insts commited each cycle
system.cpu0.commit.committed_per_cycle::stdev     0.942679                       # Number of insts commited each cycle
system.cpu0.commit.committed_per_cycle::underflows            0      0.00%      0.00% # Number of insts commited each cycle
system.cpu0.commit.committed_per_cycle::0     25347698     88.14%     88.14% # Number of insts commited each cycle
system.cpu0.commit.committed_per_cycle::1      1560614      5.43%     93.57% # Number of insts commited each cycle
system.cpu0.commit.committed_per_cycle::2       372057      1.29%     94.86% # Number of insts commited each cycle
system.cpu0.commit.committed_per_cycle::3      1028724      3.58%     98.44% # Number of insts commited each cycle
system.cpu0.commit.committed_per_cycle::4       177295      0.62%     99.06% # Number of insts commited each cycle
system.cpu0.commit.committed_per_cycle::5       104865      0.36%     99.42% # Number of insts commited each cycle
system.cpu0.commit.committed_per_cycle::6        19843      0.07%     99.49% # Number of insts commited each cycle
system.cpu0.commit.committed_per_cycle::7         9408      0.03%     99.52% # Number of insts commited each cycle
system.cpu0.commit.committed_per_cycle::8       137328      0.48%    100.00% # Number of insts commited each cycle
system.cpu0.commit.committed_per_cycle::overflows            0      0.00%    100.00% # Number of insts commited each cycle
system.cpu0.commit.committed_per_cycle::min_value            0                       # Number of insts commited each cycle
system.cpu0.commit.committed_per_cycle::max_value            8                       # Number of insts commited each cycle
system.cpu0.commit.committed_per_cycle::total     28757832                       # Number of insts commited each cycle
system.cpu0.commit.committedInsts             3955568                       # Number of instructions committed
system.cpu0.commit.committedOps               7907943                       # Number of ops (including micro ops) committed
system.cpu0.commit.swp_count                        0                       # Number of s/w prefetches committed
system.cpu0.commit.refs                       1570563                       # Number of memory references committed
system.cpu0.commit.loads                      1499318                       # Number of loads committed
system.cpu0.commit.membars                          0                       # Number of memory barriers committed
system.cpu0.commit.branches                   1435248                       # Number of branches committed
system.cpu0.commit.vec_insts                        0                       # Number of committed Vector instructions.
system.cpu0.commit.fp_insts                     28694                       # Number of committed floating point instructions.
system.cpu0.commit.int_insts                  7878964                       # Number of committed integer instructions.
system.cpu0.commit.function_calls               12573                       # Number of function calls committed.
system.cpu0.commit.op_class_0::No_OpClass         8689      0.11%      0.11% # Class of committed instruction
system.cpu0.commit.op_class_0::IntAlu         6282516     79.45%     79.56% # Class of committed instruction
system.cpu0.commit.op_class_0::IntMult            503      0.01%     79.56% # Class of committed instruction
system.cpu0.commit.op_class_0::IntDiv           21180      0.27%     79.83% # Class of committed instruction
system.cpu0.commit.op_class_0::FloatAdd         24492      0.31%     80.14% # Class of committed instruction
system.cpu0.commit.op_class_0::FloatCmp             0      0.00%     80.14% # Class of committed instruction
system.cpu0.commit.op_class_0::FloatCvt             0      0.00%     80.14% # Class of committed instruction
system.cpu0.commit.op_class_0::FloatMult            0      0.00%     80.14% # Class of committed instruction
system.cpu0.commit.op_class_0::FloatMultAcc            0      0.00%     80.14% # Class of committed instruction
system.cpu0.commit.op_class_0::FloatDiv             0      0.00%     80.14% # Class of committed instruction
system.cpu0.commit.op_class_0::FloatMisc            0      0.00%     80.14% # Class of committed instruction
system.cpu0.commit.op_class_0::FloatSqrt            0      0.00%     80.14% # Class of committed instruction
system.cpu0.commit.op_class_0::SimdAdd              0      0.00%     80.14% # Class of committed instruction
system.cpu0.commit.op_class_0::SimdAddAcc            0      0.00%     80.14% # Class of committed instruction
system.cpu0.commit.op_class_0::SimdAlu              0      0.00%     80.14% # Class of committed instruction
system.cpu0.commit.op_class_0::SimdCmp              0      0.00%     80.14% # Class of committed instruction
system.cpu0.commit.op_class_0::SimdCvt              0      0.00%     80.14% # Class of committed instruction
system.cpu0.commit.op_class_0::SimdMisc             0      0.00%     80.14% # Class of committed instruction
system.cpu0.commit.op_class_0::SimdMult             0      0.00%     80.14% # Class of committed instruction
system.cpu0.commit.op_class_0::SimdMultAcc            0      0.00%     80.14% # Class of committed instruction
system.cpu0.commit.op_class_0::SimdShift            0      0.00%     80.14% # Class of committed instruction
system.cpu0.commit.op_class_0::SimdShiftAcc            0      0.00%     80.14% # Class of committed instruction
system.cpu0.commit.op_class_0::SimdSqrt             0      0.00%     80.14% # Class of committed instruction
system.cpu0.commit.op_class_0::SimdFloatAdd            0      0.00%     80.14% # Class of committed instruction
system.cpu0.commit.op_class_0::SimdFloatAlu            0      0.00%     80.14% # Class of committed instruction
system.cpu0.commit.op_class_0::SimdFloatCmp            0      0.00%     80.14% # Class of committed instruction
system.cpu0.commit.op_class_0::SimdFloatCvt            0      0.00%     80.14% # Class of committed instruction
system.cpu0.commit.op_class_0::SimdFloatDiv            0      0.00%     80.14% # Class of committed instruction
system.cpu0.commit.op_class_0::SimdFloatMisc            0      0.00%     80.14% # Class of committed instruction
system.cpu0.commit.op_class_0::SimdFloatMult            0      0.00%     80.14% # Class of committed instruction
system.cpu0.commit.op_class_0::SimdFloatMultAcc            0      0.00%     80.14% # Class of committed instruction
system.cpu0.commit.op_class_0::SimdFloatSqrt            0      0.00%     80.14% # Class of committed instruction
system.cpu0.commit.op_class_0::MemRead        1495116     18.91%     99.05% # Class of committed instruction
system.cpu0.commit.op_class_0::MemWrite         71245      0.90%     99.95% # Class of committed instruction
system.cpu0.commit.op_class_0::FloatMemRead         4202      0.05%    100.00% # Class of committed instruction
system.cpu0.commit.op_class_0::FloatMemWrite            0      0.00%    100.00% # Class of committed instruction
system.cpu0.commit.op_class_0::IprAccess            0      0.00%    100.00% # Class of committed instruction
system.cpu0.commit.op_class_0::InstPrefetch            0      0.00%    100.00% # Class of committed instruction
system.cpu0.commit.op_class_0::total          7907943                       # Class of committed instruction
system.cpu0.commit.bw_lim_events               137328                       # number cycles where commit BW limit reached
system.cpu0.rob.rob_reads                    48981352                       # The number of ROB reads
system.cpu0.rob.rob_writes                   42474041                       # The number of ROB writes
system.cpu0.timesIdled                            556                       # Number of times that the entire CPU went into an idle state and unscheduled itself
system.cpu0.idleCycles                          29323                       # Total number of cycles that the CPU has spent unscheduled due to idling
system.cpu0.committedInsts                    3955568                       # Number of Instructions Simulated
system.cpu0.committedOps                      7907943                       # Number of Ops (including micro ops) Simulated
system.cpu0.cpi                              7.719419                       # CPI: Cycles Per Instruction
system.cpu0.cpi_total                        7.719419                       # CPI: Total CPI of All Threads
system.cpu0.ipc                              0.129543                       # IPC: Instructions Per Cycle
system.cpu0.ipc_total                        0.129543                       # IPC: Total IPC of All Threads
system.cpu0.int_regfile_reads                14245818                       # number of integer regfile reads
system.cpu0.int_regfile_writes               12191455                       # number of integer regfile writes
system.cpu0.fp_regfile_reads                    70298                       # number of floating regfile reads
system.cpu0.fp_regfile_writes                   34992                       # number of floating regfile writes
system.cpu0.cc_regfile_reads                  9325074                       # number of cc regfile reads
system.cpu0.cc_regfile_writes                 3932437                       # number of cc regfile writes
system.cpu0.misc_regfile_reads                7654867                       # number of misc regfile reads
system.cpu0.dcache.tags.pwrStateResidencyTicks::UNDEFINED  15267344125                       # Cumulative time (in ticks) in various power states
system.cpu0.dcache.tags.replacements           793917                       # number of replacements
system.cpu0.dcache.tags.tagsinuse                 512                       # Cycle average of tags in use
system.cpu0.dcache.tags.total_refs             923793                       # Total number of references to valid blocks.
system.cpu0.dcache.tags.sampled_refs           793917                       # Sample count of references to valid blocks.
system.cpu0.dcache.tags.avg_refs             1.163589                       # Average number of references to valid blocks.
system.cpu0.dcache.tags.warmup_cycle                0                       # Cycle when the warmup percentage was hit.
system.cpu0.dcache.tags.occ_blocks::cpu0.data          512                       # Average occupied blocks per requestor
system.cpu0.dcache.tags.occ_percent::cpu0.data            1                       # Average percentage of cache occupancy
system.cpu0.dcache.tags.occ_percent::total            1                       # Average percentage of cache occupancy
system.cpu0.dcache.tags.occ_task_id_blocks::1024          512                       # Occupied blocks per task id
system.cpu0.dcache.tags.age_task_id_blocks_1024::0          425                       # Occupied blocks per task id
system.cpu0.dcache.tags.age_task_id_blocks_1024::1           87                       # Occupied blocks per task id
system.cpu0.dcache.tags.occ_task_id_percent::1024            1                       # Percentage of cache occupancy per task id
system.cpu0.dcache.tags.tag_accesses          9876265                       # Number of tag accesses
system.cpu0.dcache.tags.data_accesses         9876265                       # Number of data accesses
system.cpu0.dcache.pwrStateResidencyTicks::UNDEFINED  15267344125                       # Cumulative time (in ticks) in various power states
system.cpu0.dcache.ReadReq_hits::cpu0.data       856229                       # number of ReadReq hits
system.cpu0.dcache.ReadReq_hits::total         856229                       # number of ReadReq hits
system.cpu0.dcache.WriteReq_hits::cpu0.data        68057                       # number of WriteReq hits
system.cpu0.dcache.WriteReq_hits::total         68057                       # number of WriteReq hits
system.cpu0.dcache.demand_hits::cpu0.data       924286                       # number of demand (read+write) hits
system.cpu0.dcache.demand_hits::total          924286                       # number of demand (read+write) hits
system.cpu0.dcache.overall_hits::cpu0.data       924286                       # number of overall hits
system.cpu0.dcache.overall_hits::total         924286                       # number of overall hits
system.cpu0.dcache.ReadReq_misses::cpu0.data      1343113                       # number of ReadReq misses
system.cpu0.dcache.ReadReq_misses::total      1343113                       # number of ReadReq misses
system.cpu0.dcache.WriteReq_misses::cpu0.data         3188                       # number of WriteReq misses
system.cpu0.dcache.WriteReq_misses::total         3188                       # number of WriteReq misses
system.cpu0.dcache.demand_misses::cpu0.data      1346301                       # number of demand (read+write) misses
system.cpu0.dcache.demand_misses::total       1346301                       # number of demand (read+write) misses
system.cpu0.dcache.overall_misses::cpu0.data      1346301                       # number of overall misses
system.cpu0.dcache.overall_misses::total      1346301                       # number of overall misses
system.cpu0.dcache.ReadReq_miss_latency::cpu0.data  31593669500                       # number of ReadReq miss cycles
system.cpu0.dcache.ReadReq_miss_latency::total  31593669500                       # number of ReadReq miss cycles
system.cpu0.dcache.WriteReq_miss_latency::cpu0.data    132544993                       # number of WriteReq miss cycles
system.cpu0.dcache.WriteReq_miss_latency::total    132544993                       # number of WriteReq miss cycles
system.cpu0.dcache.demand_miss_latency::cpu0.data  31726214493                       # number of demand (read+write) miss cycles
system.cpu0.dcache.demand_miss_latency::total  31726214493                       # number of demand (read+write) miss cycles
system.cpu0.dcache.overall_miss_latency::cpu0.data  31726214493                       # number of overall miss cycles
system.cpu0.dcache.overall_miss_latency::total  31726214493                       # number of overall miss cycles
system.cpu0.dcache.ReadReq_accesses::cpu0.data      2199342                       # number of ReadReq accesses(hits+misses)
system.cpu0.dcache.ReadReq_accesses::total      2199342                       # number of ReadReq accesses(hits+misses)
system.cpu0.dcache.WriteReq_accesses::cpu0.data        71245                       # number of WriteReq accesses(hits+misses)
system.cpu0.dcache.WriteReq_accesses::total        71245                       # number of WriteReq accesses(hits+misses)
system.cpu0.dcache.demand_accesses::cpu0.data      2270587                       # number of demand (read+write) accesses
system.cpu0.dcache.demand_accesses::total      2270587                       # number of demand (read+write) accesses
system.cpu0.dcache.overall_accesses::cpu0.data      2270587                       # number of overall (read+write) accesses
system.cpu0.dcache.overall_accesses::total      2270587                       # number of overall (read+write) accesses
system.cpu0.dcache.ReadReq_miss_rate::cpu0.data     0.610689                       # miss rate for ReadReq accesses
system.cpu0.dcache.ReadReq_miss_rate::total     0.610689                       # miss rate for ReadReq accesses
[...]
system.l2.demand_miss_rate::cpu0.data        0.108544                       # miss rate for demand accesses
system.l2.demand_miss_rate::total            0.108548                       # miss rate for demand accesses
system.l2.overall_miss_rate::cpu0.inst              1                       # miss rate for overall accesses
system.l2.overall_miss_rate::cpu0.data       0.108544                       # miss rate for overall accesses
system.l2.overall_miss_rate::total           0.108548                       # miss rate for overall accesses
system.l2.ReadExReq_avg_miss_latency::cpu0.data 143802.670623                       # average ReadExReq miss latency
system.l2.ReadExReq_avg_miss_latency::total 143802.670623                       # average ReadExReq miss latency
system.l2.ReadCleanReq_avg_miss_latency::cpu0.inst 94666.666667                       # average ReadCleanReq miss latency
system.l2.ReadCleanReq_avg_miss_latency::total 94666.666667                       # average ReadCleanReq miss latency
system.l2.ReadSharedReq_avg_miss_latency::cpu0.data 98620.337774                       # average ReadSharedReq miss latency
system.l2.ReadSharedReq_avg_miss_latency::total 98620.337774                       # average ReadSharedReq miss latency
system.l2.demand_avg_miss_latency::cpu0.inst 94666.666667                       # average overall miss latency
system.l2.demand_avg_miss_latency::cpu0.data 98973.722077                       # average overall miss latency
system.l2.demand_avg_miss_latency::total 98973.572141                       # average overall miss latency
system.l2.overall_avg_miss_latency::cpu0.inst 94666.666667                       # average overall miss latency
system.l2.overall_avg_miss_latency::cpu0.data 98973.722077                       # average overall miss latency
system.l2.overall_avg_miss_latency::total 98973.572141                       # average overall miss latency
system.l2.blocked_cycles::no_mshrs                  0                       # number of cycles access was blocked
system.l2.blocked_cycles::no_targets                0                       # number of cycles access was blocked
system.l2.blocked::no_mshrs                         0                       # number of cycles access was blocked
system.l2.blocked::no_targets                       0                       # number of cycles access was blocked
system.l2.avg_blocked_cycles::no_mshrs            nan                       # average number of cycles each access was blocked
system.l2.avg_blocked_cycles::no_targets          nan                       # average number of cycles each access was blocked
system.l2.writebacks::writebacks                 3023                       # number of writebacks
system.l2.writebacks::total                      3023                       # number of writebacks
system.l2.ReadExReq_mshr_misses::cpu0.data          674                       # number of ReadExReq MSHR misses
system.l2.ReadExReq_mshr_misses::total            674                       # number of ReadExReq MSHR misses
system.l2.ReadCleanReq_mshr_misses::cpu0.inst            3                       # number of ReadCleanReq MSHR misses
system.l2.ReadCleanReq_mshr_misses::total            3                       # number of ReadCleanReq MSHR misses
system.l2.ReadSharedReq_mshr_misses::cpu0.data        85501                       # number of ReadSharedReq MSHR misses
system.l2.ReadSharedReq_mshr_misses::total        85501                       # number of ReadSharedReq MSHR misses
system.l2.demand_mshr_misses::cpu0.inst             3                       # number of demand (read+write) MSHR misses
system.l2.demand_mshr_misses::cpu0.data         86175                       # number of demand (read+write) MSHR misses
system.l2.demand_mshr_misses::total             86178                       # number of demand (read+write) MSHR misses
system.l2.overall_mshr_misses::cpu0.inst            3                       # number of overall MSHR misses
system.l2.overall_mshr_misses::cpu0.data        86175                       # number of overall MSHR misses
system.l2.overall_mshr_misses::total            86178                       # number of overall MSHR misses
system.l2.ReadExReq_mshr_miss_latency::cpu0.data     90183000                       # number of ReadExReq MSHR miss cycles
system.l2.ReadExReq_mshr_miss_latency::total     90183000                       # number of ReadExReq MSHR miss cycles
system.l2.ReadCleanReq_mshr_miss_latency::cpu0.inst       254000                       # number of ReadCleanReq MSHR miss cycles
system.l2.ReadCleanReq_mshr_miss_latency::total       254000                       # number of ReadCleanReq MSHR miss cycles
system.l2.ReadSharedReq_mshr_miss_latency::cpu0.data   7577117500                       # number of ReadSharedReq MSHR miss cycles
system.l2.ReadSharedReq_mshr_miss_latency::total   7577117500                       # number of ReadSharedReq MSHR miss cycles
system.l2.demand_mshr_miss_latency::cpu0.inst       254000                       # number of demand (read+write) MSHR miss cycles
system.l2.demand_mshr_miss_latency::cpu0.data   7667300500                       # number of demand (read+write) MSHR miss cycles
system.l2.demand_mshr_miss_latency::total   7667554500                       # number of demand (read+write) MSHR miss cycles
system.l2.overall_mshr_miss_latency::cpu0.inst       254000                       # number of overall MSHR miss cycles
system.l2.overall_mshr_miss_latency::cpu0.data   7667300500                       # number of overall MSHR miss cycles
system.l2.overall_mshr_miss_latency::total   7667554500                       # number of overall MSHR miss cycles
system.l2.ReadExReq_mshr_miss_rate::cpu0.data     0.212417                       # mshr miss rate for ReadExReq accesses
system.l2.ReadExReq_mshr_miss_rate::total     0.212417                       # mshr miss rate for ReadExReq accesses
system.l2.ReadCleanReq_mshr_miss_rate::cpu0.inst            1                       # mshr miss rate for ReadCleanReq accesses
system.l2.ReadCleanReq_mshr_miss_rate::total            1                       # mshr miss rate for ReadCleanReq accesses
system.l2.ReadSharedReq_mshr_miss_rate::cpu0.data     0.108128                       # mshr miss rate for ReadSharedReq accesses
system.l2.ReadSharedReq_mshr_miss_rate::total     0.108128                       # mshr miss rate for ReadSharedReq accesses
system.l2.demand_mshr_miss_rate::cpu0.inst            1                       # mshr miss rate for demand accesses
system.l2.demand_mshr_miss_rate::cpu0.data     0.108544                       # mshr miss rate for demand accesses
system.l2.demand_mshr_miss_rate::total       0.108548                       # mshr miss rate for demand accesses
system.l2.overall_mshr_miss_rate::cpu0.inst            1                       # mshr miss rate for overall accesses
system.l2.overall_mshr_miss_rate::cpu0.data     0.108544                       # mshr miss rate for overall accesses
system.l2.overall_mshr_miss_rate::total      0.108548                       # mshr miss rate for overall accesses
system.l2.ReadExReq_avg_mshr_miss_latency::cpu0.data 133802.670623                       # average ReadExReq mshr miss latency
system.l2.ReadExReq_avg_mshr_miss_latency::total 133802.670623                       # average ReadExReq mshr miss latency
system.l2.ReadCleanReq_avg_mshr_miss_latency::cpu0.inst 84666.666667                       # average ReadCleanReq mshr miss latency
system.l2.ReadCleanReq_avg_mshr_miss_latency::total 84666.666667                       # average ReadCleanReq mshr miss latency
system.l2.ReadSharedReq_avg_mshr_miss_latency::cpu0.data 88620.220816                       # average ReadSharedReq mshr miss latency
system.l2.ReadSharedReq_avg_mshr_miss_latency::total 88620.220816                       # average ReadSharedReq mshr miss latency
system.l2.demand_avg_mshr_miss_latency::cpu0.inst 84666.666667                       # average overall mshr miss latency
system.l2.demand_avg_mshr_miss_latency::cpu0.data 88973.606034                       # average overall mshr miss latency
system.l2.demand_avg_mshr_miss_latency::total 88973.456102                       # average overall mshr miss latency
system.l2.overall_avg_mshr_miss_latency::cpu0.inst 84666.666667                       # average overall mshr miss latency
system.l2.overall_avg_mshr_miss_latency::cpu0.data 88973.606034                       # average overall mshr miss latency
system.l2.overall_avg_mshr_miss_latency::total 88973.456102                       # average overall mshr miss latency
system.membus.snoop_filter.tot_requests        172353                       # Total number of requests made to the snoop filter.
system.membus.snoop_filter.hit_single_requests        86176                       # Number of requests hitting in the snoop filter with a single holder of the requested data.
system.membus.snoop_filter.hit_multi_requests            0                       # Number of requests hitting in the snoop filter with multiple (>1) holders of the requested data.
system.membus.snoop_filter.tot_snoops               0                       # Total number of snoops made to the snoop filter.
system.membus.snoop_filter.hit_single_snoops            0                       # Number of snoops hitting in the snoop filter with a single holder of the requested data.
system.membus.snoop_filter.hit_multi_snoops            0                       # Number of snoops hitting in the snoop filter with multiple (>1) holders of the requested data.
system.membus.pwrStateResidencyTicks::UNDEFINED  15267344125                       # Cumulative time (in ticks) in various power states
system.membus.trans_dist::ReadResp              85505                       # Transaction distribution
system.membus.trans_dist::WritebackDirty         3023                       # Transaction distribution
system.membus.trans_dist::CleanEvict            83151                       # Transaction distribution
system.membus.trans_dist::ReadExReq               674                       # Transaction distribution
system.membus.trans_dist::ReadExResp              674                       # Transaction distribution
system.membus.trans_dist::ReadSharedReq         85505                       # Transaction distribution
system.membus.pkt_count_system.l2.mem_side::system.mem_ctrls.port       258532                       # Packet count per connected master and slave (bytes)
system.membus.pkt_count_system.l2.mem_side::total       258532                       # Packet count per connected master and slave (bytes)
system.membus.pkt_count::total                 258532                       # Packet count per connected master and slave (bytes)
system.membus.pkt_size_system.l2.mem_side::system.mem_ctrls.port      5708928                       # Cumulative packet size per connected master and slave (bytes)
system.membus.pkt_size_system.l2.mem_side::total      5708928                       # Cumulative packet size per connected master and slave (bytes)
system.membus.pkt_size::total                 5708928                       # Cumulative packet size per connected master and slave (bytes)
system.membus.snoops                                0                       # Total snoops (count)
system.membus.snoopTraffic                          0                       # Total snoop traffic (bytes)
system.membus.snoop_fanout::samples             86179                       # Request fanout histogram
system.membus.snoop_fanout::mean                    0                       # Request fanout histogram
system.membus.snoop_fanout::stdev                   0                       # Request fanout histogram
system.membus.snoop_fanout::underflows              0      0.00%      0.00% # Request fanout histogram
system.membus.snoop_fanout::0                   86179    100.00%    100.00% # Request fanout histogram
system.membus.snoop_fanout::1                       0      0.00%    100.00% # Request fanout histogram
system.membus.snoop_fanout::overflows               0      0.00%    100.00% # Request fanout histogram
system.membus.snoop_fanout::min_value               0                       # Request fanout histogram
system.membus.snoop_fanout::max_value               0                       # Request fanout histogram
system.membus.snoop_fanout::total               86179                       # Request fanout histogram
system.membus.reqLayer12.occupancy          209516500                       # Layer occupancy (ticks)
system.membus.reqLayer12.utilization              1.4                       # Layer utilization (%)
system.membus.respLayer1.occupancy          474104250                       # Layer occupancy (ticks)
system.membus.respLayer1.utilization              3.1                       # Layer utilization (%)
system.tol2bus.snoop_filter.tot_requests      1587838                       # Total number of requests made to the snoop filter.
system.tol2bus.snoop_filter.hit_single_requests       793921                       # Number of requests hitting in the snoop filter with a single holder of the requested data.
system.tol2bus.snoop_filter.hit_multi_requests         1649                       # Number of requests hitting in the snoop filter with multiple (>1) holders of the requested data.
system.tol2bus.snoop_filter.tot_snoops              8                       # Total number of snoops made to the snoop filter.
system.tol2bus.snoop_filter.hit_single_snoops            8                       # Number of snoops hitting in the snoop filter with a single holder of the requested data.
system.tol2bus.snoop_filter.hit_multi_snoops            0                       # Number of snoops hitting in the snoop filter with multiple (>1) holders of the requested data.
system.tol2bus.pwrStateResidencyTicks::UNDEFINED  15267344125                       # Cumulative time (in ticks) in various power states
system.tol2bus.trans_dist::ReadResp            790747                       # Transaction distribution
system.tol2bus.trans_dist::WritebackDirty        92694                       # Transaction distribution
system.tol2bus.trans_dist::WritebackClean            3                       # Transaction distribution
system.tol2bus.trans_dist::CleanEvict          787405                       # Transaction distribution
system.tol2bus.trans_dist::ReadExReq             3173                       # Transaction distribution
system.tol2bus.trans_dist::ReadExResp            3173                       # Transaction distribution
system.tol2bus.trans_dist::ReadCleanReq             3                       # Transaction distribution
system.tol2bus.trans_dist::ReadSharedReq       790742                       # Transaction distribution
system.tol2bus.pkt_count_system.cpu0.icache.mem_side::system.l2.cpu_side            9                       # Packet count per connected master and slave (bytes)
system.tol2bus.pkt_count_system.cpu0.dcache.mem_side::system.l2.cpu_side      2381749                       # Packet count per connected master and slave (bytes)
system.tol2bus.pkt_count::total               2381758                       # Packet count per connected master and slave (bytes)
system.tol2bus.pkt_size_system.cpu0.icache.mem_side::system.l2.cpu_side          384                       # Cumulative packet size per connected master and slave (bytes)
system.tol2bus.pkt_size_system.cpu0.dcache.mem_side::system.l2.cpu_side     56549632                       # Cumulative packet size per connected master and slave (bytes)
system.tol2bus.pkt_size::total               56550016                       # Cumulative packet size per connected master and slave (bytes)
system.tol2bus.snoops                           86182                       # Total snoops (count)
system.tol2bus.snoopTraffic                    193472                       # Total snoop traffic (bytes)
system.tol2bus.snoop_fanout::samples           880100                       # Request fanout histogram
system.tol2bus.snoop_fanout::mean            0.001884                       # Request fanout histogram
system.tol2bus.snoop_fanout::stdev           0.043363                       # Request fanout histogram
system.tol2bus.snoop_fanout::underflows             0      0.00%      0.00% # Request fanout histogram
system.tol2bus.snoop_fanout::0                 878442     99.81%     99.81% # Request fanout histogram
system.tol2bus.snoop_fanout::1                   1658      0.19%    100.00% # Request fanout histogram
system.tol2bus.snoop_fanout::2                      0      0.00%    100.00% # Request fanout histogram
system.tol2bus.snoop_fanout::3                      0      0.00%    100.00% # Request fanout histogram
system.tol2bus.snoop_fanout::4                      0      0.00%    100.00% # Request fanout histogram
system.tol2bus.snoop_fanout::5                      0      0.00%    100.00% # Request fanout histogram
system.tol2bus.snoop_fanout::6                      0      0.00%    100.00% # Request fanout histogram
system.tol2bus.snoop_fanout::7                      0      0.00%    100.00% # Request fanout histogram
system.tol2bus.snoop_fanout::8                      0      0.00%    100.00% # Request fanout histogram
system.tol2bus.snoop_fanout::9                      0      0.00%    100.00% # Request fanout histogram
system.tol2bus.snoop_fanout::10                     0      0.00%    100.00% # Request fanout histogram
system.tol2bus.snoop_fanout::11                     0      0.00%    100.00% # Request fanout histogram
system.tol2bus.snoop_fanout::12                     0      0.00%    100.00% # Request fanout histogram
system.tol2bus.snoop_fanout::13                     0      0.00%    100.00% # Request fanout histogram
system.tol2bus.snoop_fanout::14                     0      0.00%    100.00% # Request fanout histogram
system.tol2bus.snoop_fanout::15                     0      0.00%    100.00% # Request fanout histogram
system.tol2bus.snoop_fanout::16                     0      0.00%    100.00% # Request fanout histogram
system.tol2bus.snoop_fanout::17                     0      0.00%    100.00% # Request fanout histogram
system.tol2bus.snoop_fanout::18                     0      0.00%    100.00% # Request fanout histogram
system.tol2bus.snoop_fanout::19                     0      0.00%    100.00% # Request fanout histogram
system.tol2bus.snoop_fanout::20                     0      0.00%    100.00% # Request fanout histogram
system.tol2bus.snoop_fanout::21                     0      0.00%    100.00% # Request fanout histogram
system.tol2bus.snoop_fanout::22                     0      0.00%    100.00% # Request fanout histogram
system.tol2bus.snoop_fanout::23                     0      0.00%    100.00% # Request fanout histogram
system.tol2bus.snoop_fanout::24                     0      0.00%    100.00% # Request fanout histogram
system.tol2bus.snoop_fanout::overflows              0      0.00%    100.00% # Request fanout histogram
system.tol2bus.snoop_fanout::min_value              0                       # Request fanout histogram
system.tol2bus.snoop_fanout::max_value              1                       # Request fanout histogram
system.tol2bus.snoop_fanout::total             880100                       # Request fanout histogram
system.tol2bus.reqLayer0.occupancy          883593000                       # Layer occupancy (ticks)
system.tol2bus.reqLayer0.utilization              5.8                       # Layer utilization (%)
system.tol2bus.respLayer0.occupancy              4500                       # Layer occupancy (ticks)
system.tol2bus.respLayer0.utilization             0.0                       # Layer utilization (%)
system.tol2bus.respLayer1.occupancy        1190875500                       # Layer occupancy (ticks)
system.tol2bus.respLayer1.utilization             7.8                       # Layer utilization (%)

---------- End Simulation Statistics   ----------
