
---------- Begin Simulation Statistics ----------
sim_seconds                                  0.015267                       # Number of seconds simulated
sim_ticks                                 15267344125                       # Number of ticks simulated
final_tick                               2213764898125                       # Number of ticks from beginning of simulation (restored from checkpoints and never reset)
sim_freq                                 1000000000000                       # Frequency of simulated ticks
host_inst_rate                               11631416                       # Simulator instruction rate (inst/s)
host_op_rate                                 21206856                       # Simulator op (including micro ops) rate (op/s)
host_tick_rate                               35537058                       # Simulator tick rate (ticks/s)
host_mem_usage                                3428828                       # Number of bytes of host memory used
host_seconds                                   429.62                       # Real time elapsed on the host
sim_insts                                  4997059928                       # Number of instructions simulated
sim_ops                                    9110837383                       # Number of ops (including micro ops) simulated
system.voltage_domain.voltage                       1                       # Voltage in Volts
system.clk_domain.clock                          1000                       # Clock period in ticks
system.mem_ctrls.pwrStateResidencyTicks::UNDEFINED  15267344125                       # Cumulative time (in ticks) in various power states
system.mem_ctrls.bytes_read::cpu0.inst            192                       # Number of bytes read from this memory
system.mem_ctrls.bytes_read::cpu0.data         890048                       # Number of bytes read from this memory
system.mem_ctrls.bytes_read::total             890240                       # Number of bytes read from this memory
system.mem_ctrls.bytes_inst_read::cpu0.inst          192                       # Number of instructions bytes read from this memory
system.mem_ctrls.bytes_inst_read::total           192                       # Number of instructions bytes read from this memory
system.mem_ctrls.bytes_written::writebacks       854720                       # Number of bytes written to this memory
system.mem_ctrls.bytes_written::total          854720                       # Number of bytes written to this memory
system.mem_ctrls.num_reads::cpu0.inst               3                       # Number of read requests responded to by this memory
system.mem_ctrls.num_reads::cpu0.data           13907                       # Number of read requests responded to by this memory
system.mem_ctrls.num_reads::total               13910                       # Number of read requests responded to by this memory
system.mem_ctrls.num_writes::writebacks         13355                       # Number of write requests responded to by this memory
system.mem_ctrls.num_writes::total              13355                       # Number of write requests responded to by this memory
system.mem_ctrls.bw_read::cpu0.inst             12576                       # Total read bandwidth from this memory (bytes/s)
system.mem_ctrls.bw_read::cpu0.data          58297500                       # Total read bandwidth from this memory (bytes/s)
system.mem_ctrls.bw_read::total              58310076                       # Total read bandwidth from this memory (bytes/s)
system.mem_ctrls.bw_inst_read::cpu0.inst        12576                       # Instruction read bandwidth from this memory (bytes/s)
system.mem_ctrls.bw_inst_read::total            12576                       # Instruction read bandwidth from this memory (bytes/s)
system.mem_ctrls.bw_write::writebacks        55983542                       # Write bandwidth from this memory (bytes/s)
system.mem_ctrls.bw_write::total             55983542                       # Write bandwidth from this memory (bytes/s)
system.mem_ctrls.bw_total::writebacks        55983542                       # Total bandwidth to/from this memory (bytes/s)
system.mem_ctrls.bw_total::cpu0.inst            12576                       # Total bandwidth to/from this memory (bytes/s)
system.mem_ctrls.bw_total::cpu0.data         58297500                       # Total bandwidth to/from this memory (bytes/s)
system.mem_ctrls.bw_total::total            114293618                       # Total bandwidth to/from this memory (bytes/s)
system.mem_ctrls.readReqs                       13910                       # Number of read requests accepted
system.mem_ctrls.writeReqs                      13355                       # Number of write requests accepted
system.mem_ctrls.readBursts                     13910                       # Number of DRAM read bursts, including those serviced by the write queue
system.mem_ctrls.writeBursts                    13355                       # Number of DRAM write bursts, including those merged in the write queue
system.mem_ctrls.bytesReadDRAM                 890240                       # Total number of bytes read from DRAM
system.mem_ctrls.bytesReadWrQ                       0                       # Total number of bytes read from write queue
system.mem_ctrls.bytesWritten                  855104                       # Total number of bytes written to DRAM
system.mem_ctrls.bytesReadSys                  890240                       # Total read bytes from the system interface side
system.mem_ctrls.bytesWrittenSys               854720                       # Total written bytes from the system interface side
system.mem_ctrls.servicedByWrQ                      0                       # Number of DRAM read bursts serviced by the write queue
system.mem_ctrls.mergedWrBursts                     0                       # Number of DRAM write bursts merged with an existing one
system.mem_ctrls.neitherReadNorWriteReqs            0                       # Number of requests that are neither read nor write
system.mem_ctrls.perBankRdBursts::0               937                       # Per bank write bursts
system.mem_ctrls.perBankRdBursts::1               939                       # Per bank write bursts
system.mem_ctrls.perBankRdBursts::2               846                       # Per bank write bursts
system.mem_ctrls.perBankRdBursts::3               809                       # Per bank write bursts
system.mem_ctrls.perBankRdBursts::4               835                       # Per bank write bursts
system.mem_ctrls.perBankRdBursts::5               808                       # Per bank write bursts
system.mem_ctrls.perBankRdBursts::6               824                       # Per bank write bursts
system.mem_ctrls.perBankRdBursts::7               869                       # Per bank write bursts
system.mem_ctrls.perBankRdBursts::8               814                       # Per bank write bursts
system.mem_ctrls.perBankRdBursts::9               811                       # Per bank write bursts
system.mem_ctrls.perBankRdBursts::10              835                       # Per bank write bursts
system.mem_ctrls.perBankRdBursts::11              881                       # Per bank write bursts
system.mem_ctrls.perBankRdBursts::12              783                       # Per bank write bursts
system.mem_ctrls.perBankRdBursts::13              961                       # Per bank write bursts
system.mem_ctrls.perBankRdBursts::14              988                       # Per bank write bursts
system.mem_ctrls.perBankRdBursts::15              970                       # Per bank write bursts
system.mem_ctrls.perBankWrBursts::0               911                       # Per bank write bursts
system.mem_ctrls.perBankWrBursts::1               893                       # Per bank write bursts
system.mem_ctrls.perBankWrBursts::2               819                       # Per bank write bursts
system.mem_ctrls.perBankWrBursts::3               792                       # Per bank write bursts
system.mem_ctrls.perBankWrBursts::4               787                       # Per bank write bursts
system.mem_ctrls.perBankWrBursts::5               770                       # Per bank write bursts
system.mem_ctrls.perBankWrBursts::6               783                       # Per bank write bursts
system.mem_ctrls.perBankWrBursts::7               782                       # Per bank write bursts
system.mem_ctrls.perBankWrBursts::8               768                       # Per bank write bursts
system.mem_ctrls.perBankWrBursts::9               782                       # Per bank write bursts
system.mem_ctrls.perBankWrBursts::10              812                       # Per bank write bursts
system.mem_ctrls.perBankWrBursts::11              838                       # Per bank write bursts
system.mem_ctrls.perBankWrBursts::12              760                       # Per bank write bursts
system.mem_ctrls.perBankWrBursts::13              942                       # Per bank write bursts
system.mem_ctrls.perBankWrBursts::14              965                       # Per bank write bursts
system.mem_ctrls.perBankWrBursts::15              957                       # Per bank write bursts
system.mem_ctrls.numRdRetry                         0                       # Number of times read queue was full causing retry
system.mem_ctrls.numWrRetry                         0                       # Number of times write queue was full causing retry
system.mem_ctrls.totGap                   15267718000                       # Total gap between requests
system.mem_ctrls.readPktSize::0                     0                       # Read request sizes (log2)
system.mem_ctrls.readPktSize::1                     0                       # Read request sizes (log2)
system.mem_ctrls.readPktSize::2                     0                       # Read request sizes (log2)
system.mem_ctrls.readPktSize::3                     0                       # Read request sizes (log2)
system.mem_ctrls.readPktSize::4                     0                       # Read request sizes (log2)
system.mem_ctrls.readPktSize::5                     0                       # Read request sizes (log2)
system.mem_ctrls.readPktSize::6                 13910                       # Read request sizes (log2)
system.mem_ctrls.writePktSize::0                    0                       # Write request sizes (log2)
system.mem_ctrls.writePktSize::1                    0                       # Write request sizes (log2)
system.mem_ctrls.writePktSize::2                    0                       # Write request sizes (log2)
system.mem_ctrls.writePktSize::3                    0                       # Write request sizes (log2)
system.mem_ctrls.writePktSize::4                    0                       # Write request sizes (log2)
system.mem_ctrls.writePktSize::5                    0                       # Write request sizes (log2)
system.mem_ctrls.writePktSize::6                13355                       # Write request sizes (log2)
system.mem_ctrls.rdQLenPdf::0                   13499                       # What read queue length does an incoming req see
system.mem_ctrls.rdQLenPdf::1                     408                       # What read queue length does an incoming req see
system.mem_ctrls.rdQLenPdf::2                       3                       # What read queue length does an incoming req see
system.mem_ctrls.rdQLenPdf::3                       0                       # What read queue length does an incoming req see
system.mem_ctrls.rdQLenPdf::4                       0                       # What read queue length does an incoming req see
system.mem_ctrls.rdQLenPdf::5                       0                       # What read queue length does an incoming req see
system.mem_ctrls.rdQLenPdf::6                       0                       # What read queue length does an incoming req see
system.mem_ctrls.rdQLenPdf::7                       0                       # What read queue length does an incoming req see
system.mem_ctrls.rdQLenPdf::8                       0                       # What read queue length does an incoming req see
system.mem_ctrls.rdQLenPdf::9                       0                       # What read queue length does an incoming req see
system.mem_ctrls.rdQLenPdf::10                      0                       # What read queue length does an incoming req see
system.mem_ctrls.rdQLenPdf::11                      0                       # What read queue length does an incoming req see
system.mem_ctrls.rdQLenPdf::12                      0                       # What read queue length does an incoming req see
system.mem_ctrls.rdQLenPdf::13                      0                       # What read queue length does an incoming req see
system.mem_ctrls.rdQLenPdf::14                      0                       # What read queue length does an incoming req see
system.mem_ctrls.rdQLenPdf::15                      0                       # What read queue length does an incoming req see
system.mem_ctrls.rdQLenPdf::16                      0                       # What read queue length does an incoming req see
system.mem_ctrls.rdQLenPdf::17                      0                       # What read queue length does an incoming req see
system.mem_ctrls.rdQLenPdf::18                      0                       # What read queue length does an incoming req see
system.mem_ctrls.rdQLenPdf::19                      0                       # What read queue length does an incoming req see
system.mem_ctrls.rdQLenPdf::20                      0                       # What read queue length does an incoming req see
system.mem_ctrls.rdQLenPdf::21                      0                       # What read queue length does an incoming req see
system.mem_ctrls.rdQLenPdf::22                      0                       # What read queue length does an incoming req see
system.mem_ctrls.rdQLenPdf::23                      0                       # What read queue length does an incoming req see
system.mem_ctrls.rdQLenPdf::24                      0                       # What read queue length does an incoming req see
system.mem_ctrls.rdQLenPdf::25                      0                       # What read queue length does an incoming req see
system.mem_ctrls.rdQLenPdf::26                      0                       # What read queue length does an incoming req see
system.mem_ctrls.rdQLenPdf::27                      0                       # What read queue length does an incoming req see
system.mem_ctrls.rdQLenPdf::28                      0                       # What read queue length does an incoming req see
system.mem_ctrls.rdQLenPdf::29                      0                       # What read queue length does an incoming req see
system.mem_ctrls.rdQLenPdf::30                      0                       # What read queue length does an incoming req see
system.mem_ctrls.rdQLenPdf::31                      0                       # What read queue length does an incoming req see
system.mem_ctrls.wrQLenPdf::0                       0                       # What write queue length does an incoming req see
system.mem_ctrls.wrQLenPdf::1                       0                       # What write queue length does an incoming req see
system.mem_ctrls.wrQLenPdf::2                       0                       # What write queue length does an incoming req see
system.mem_ctrls.wrQLenPdf::3                       0                       # What write queue length does an incoming req see
system.mem_ctrls.wrQLenPdf::4                       0                       # What write queue length does an incoming req see
system.mem_ctrls.wrQLenPdf::5                       0                       # What write queue length does an incoming req see
system.mem_ctrls.wrQLenPdf::6                       0                       # What write queue length does an incoming req see
system.mem_ctrls.wrQLenPdf::7                       0                       # What write queue length does an incoming req see
system.mem_ctrls.wrQLenPdf::8                       0                       # What write queue length does an incoming req see
system.mem_ctrls.wrQLenPdf::9                       0                       # What write queue length does an incoming req see
system.mem_ctrls.wrQLenPdf::10                      0                       # What write queue length does an incoming req see
system.mem_ctrls.wrQLenPdf::11                      0                       # What write queue length does an incoming req see
system.mem_ctrls.wrQLenPdf::12                      0                       # What write queue length does an incoming req see
system.mem_ctrls.wrQLenPdf::13                      0                       # What write queue length does an incoming req see
system.mem_ctrls.wrQLenPdf::14                      0                       # What write queue length does an incoming req see
system.mem_ctrls.wrQLenPdf::15                    557                       # What write queue length does an incoming req see
system.mem_ctrls.wrQLenPdf::16                    569                       # What write queue length does an incoming req see
system.mem_ctrls.wrQLenPdf::17                    761                       # What write queue length does an incoming req see
system.mem_ctrls.wrQLenPdf::18                    763                       # What write queue length does an incoming req see
system.mem_ctrls.wrQLenPdf::19                    763                       # What write queue length does an incoming req see
system.mem_ctrls.wrQLenPdf::20                    765                       # What write queue length does an incoming req see
system.mem_ctrls.wrQLenPdf::21                    764                       # What write queue length does an incoming req see
system.mem_ctrls.wrQLenPdf::22                    765                       # What write queue length does an incoming req see
system.mem_ctrls.wrQLenPdf::23                    763                       # What write queue length does an incoming req see
system.mem_ctrls.wrQLenPdf::24                    763                       # What write queue length does an incoming req see
system.mem_ctrls.wrQLenPdf::25                    763                       # What write queue length does an incoming req see
system.mem_ctrls.wrQLenPdf::26                    763                       # What write queue length does an incoming req see
system.mem_ctrls.wrQLenPdf::27                    762                       # What write queue length does an incoming req see
system.mem_ctrls.wrQLenPdf::28                    763                       # What write queue length does an incoming req see
system.mem_ctrls.wrQLenPdf::29                    763                       # What write queue length does an incoming req see
system.mem_ctrls.wrQLenPdf::30                    781                       # What write queue length does an incoming req see
system.mem_ctrls.wrQLenPdf::31                    764                       # What write queue length does an incoming req see
system.mem_ctrls.wrQLenPdf::32                    763                       # What write queue length does an incoming req see
system.mem_ctrls.wrQLenPdf::33                      0                       # What write queue length does an incoming req see
system.mem_ctrls.wrQLenPdf::34                      0                       # What write queue length does an incoming req see
system.mem_ctrls.wrQLenPdf::35                      0                       # What write queue length does an incoming req see
system.mem_ctrls.wrQLenPdf::36                      0                       # What write queue length does an incoming req see
system.mem_ctrls.wrQLenPdf::37                      0                       # What write queue length does an incoming req see
system.mem_ctrls.wrQLenPdf::38                      0                       # What write queue length does an incoming req see
system.mem_ctrls.wrQLenPdf::39                      0                       # What write queue length does an incoming req see
system.mem_ctrls.wrQLenPdf::40                      0                       # What write queue length does an incoming req see
system.mem_ctrls.wrQLenPdf::41                      0                       # What write queue length does an incoming req see
system.mem_ctrls.wrQLenPdf::42                      0                       # What write queue length does an incoming req see
system.mem_ctrls.wrQLenPdf::43                      0                       # What write queue length does an incoming req see
system.mem_ctrls.wrQLenPdf::44                      0                       # What write queue length does an incoming req see
system.mem_ctrls.wrQLenPdf::45                      0                       # What write queue length does an incoming req see
system.mem_ctrls.wrQLenPdf::46                      0                       # What write queue length does an incoming req see
system.mem_ctrls.wrQLenPdf::47                      0                       # What write queue length does an incoming req see
system.mem_ctrls.wrQLenPdf::48                      0                       # What write queue length does an incoming req see
system.mem_ctrls.wrQLenPdf::49                      0                       # What write queue length does an incoming req see
system.mem_ctrls.wrQLenPdf::50                      0                       # What write queue length does an incoming req see
system.mem_ctrls.wrQLenPdf::51                      0                       # What write queue length does an incoming req see
system.mem_ctrls.wrQLenPdf::52                      0                       # What write queue length does an incoming req see
system.mem_ctrls.wrQLenPdf::53                      0                       # What write queue length does an incoming req see
system.mem_ctrls.wrQLenPdf::54                      0                       # What write queue length does an incoming req see
system.mem_ctrls.wrQLenPdf::55                      0                       # What write queue length does an incoming req see
system.mem_ctrls.wrQLenPdf::56                      0                       # What write queue length does an incoming req see
system.mem_ctrls.wrQLenPdf::57                      0                       # What write queue length does an incoming req see
system.mem_ctrls.wrQLenPdf::58                      0                       # What write queue length does an incoming req see
system.mem_ctrls.wrQLenPdf::59                      0                       # What write queue length does an incoming req see
system.mem_ctrls.wrQLenPdf::60                      0                       # What write queue length does an incoming req see
system.mem_ctrls.wrQLenPdf::61                      0                       # What write queue length does an incoming req see
system.mem_ctrls.wrQLenPdf::62                      0                       # What write queue length does an incoming req see
system.mem_ctrls.wrQLenPdf::63                      0                       # What write queue length does an incoming req see
system.mem_ctrls.bytesPerActivate::samples        16274                       # Bytes accessed per row activation
system.mem_ctrls.bytesPerActivate::mean    107.231658                       # Bytes accessed per row activation
system.mem_ctrls.bytesPerActivate::gmean    90.634607                       # Bytes accessed per row activation
system.mem_ctrls.bytesPerActivate::stdev    81.679378                       # Bytes accessed per row activation
system.mem_ctrls.bytesPerActivate::64-127        10396     63.88%     63.88% # Bytes accessed per row activation
system.mem_ctrls.bytesPerActivate::128-191         3503     21.53%     85.41% # Bytes accessed per row activation
system.mem_ctrls.bytesPerActivate::192-255         1182      7.26%     92.67% # Bytes accessed per row activation
system.mem_ctrls.bytesPerActivate::256-319          566      3.48%     96.15% # Bytes accessed per row activation
system.mem_ctrls.bytesPerActivate::320-383          240      1.47%     97.62% # Bytes accessed per row activation
system.mem_ctrls.bytesPerActivate::384-447          163      1.00%     98.62% # Bytes accessed per row activation
system.mem_ctrls.bytesPerActivate::448-511           83      0.51%     99.13% # Bytes accessed per row activation
system.mem_ctrls.bytesPerActivate::512-575           54      0.33%     99.47% # Bytes accessed per row activation
system.mem_ctrls.bytesPerActivate::576-639           43      0.26%     99.73% # Bytes accessed per row activation
system.mem_ctrls.bytesPerActivate::640-703           22      0.14%     99.86% # Bytes accessed per row activation
system.mem_ctrls.bytesPerActivate::704-767           11      0.07%     99.93% # Bytes accessed per row activation
system.mem_ctrls.bytesPerActivate::768-831            7      0.04%     99.98% # Bytes accessed per row activation
system.mem_ctrls.bytesPerActivate::832-895            4      0.02%    100.00% # Bytes accessed per row activation
system.mem_ctrls.bytesPerActivate::total        16274                       # Bytes accessed per row activation
system.mem_ctrls.rdPerTurnAround::samples          763                       # Reads before turning the bus around for writes
system.mem_ctrls.rdPerTurnAround::mean      18.237221                       # Reads before turning the bus around for writes
system.mem_ctrls.rdPerTurnAround::gmean     18.185780                       # Reads before turning the bus around for writes
system.mem_ctrls.rdPerTurnAround::stdev      1.380433                       # Reads before turning the bus around for writes
system.mem_ctrls.rdPerTurnAround::15                2      0.26%      0.26% # Reads before turning the bus around for writes
system.mem_ctrls.rdPerTurnAround::16              108     14.15%     14.42% # Reads before turning the bus around for writes
system.mem_ctrls.rdPerTurnAround::17               55      7.21%     21.63% # Reads before turning the bus around for writes
system.mem_ctrls.rdPerTurnAround::18              310     40.63%     62.25% # Reads before turning the bus around for writes
system.mem_ctrls.rdPerTurnAround::19              179     23.46%     85.71% # Reads before turning the bus around for writes
system.mem_ctrls.rdPerTurnAround::20               69      9.04%     94.76% # Reads before turning the bus around for writes
system.mem_ctrls.rdPerTurnAround::21               27      3.54%     98.30% # Reads before turning the bus around for writes
system.mem_ctrls.rdPerTurnAround::22                8      1.05%     99.34% # Reads before turning the bus around for writes
system.mem_ctrls.rdPerTurnAround::23                4      0.52%     99.87% # Reads before turning the bus around for writes
system.mem_ctrls.rdPerTurnAround::26                1      0.13%    100.00% # Reads before turning the bus around for writes
system.mem_ctrls.rdPerTurnAround::total           763                       # Reads before turning the bus around for writes
system.mem_ctrls.wrPerTurnAround::samples          763                       # Writes before turning the bus around for reads
system.mem_ctrls.wrPerTurnAround::mean      17.511140                       # Writes before turning the bus around for reads
system.mem_ctrls.wrPerTurnAround::gmean     17.486665                       # Writes before turning the bus around for reads
system.mem_ctrls.wrPerTurnAround::stdev      0.911184                       # Writes before turning the bus around for reads
system.mem_ctrls.wrPerTurnAround::16              194     25.43%     25.43% # Writes before turning the bus around for reads
system.mem_ctrls.wrPerTurnAround::17               12      1.57%     27.00% # Writes before turning the bus around for reads
system.mem_ctrls.wrPerTurnAround::18              530     69.46%     96.46% # Writes before turning the bus around for reads
system.mem_ctrls.wrPerTurnAround::19               27      3.54%    100.00% # Writes before turning the bus around for reads
system.mem_ctrls.wrPerTurnAround::total           763                       # Writes before turning the bus around for reads
system.mem_ctrls.totQLat                    391494250                       # Total ticks spent queuing
system.mem_ctrls.totMemAccLat               652306750                       # Total ticks spent from burst creation until serviced by the DRAM
system.mem_ctrls.totBusLat                   69550000                       # Total ticks spent in databus transfers
system.mem_ctrls.avgQLat                     28144.81                       # Average queueing delay per DRAM burst
system.mem_ctrls.avgBusLat                    5000.00                       # Average bus latency per DRAM burst
system.mem_ctrls.avgMemAccLat                46894.81                       # Average memory access latency per DRAM burst
system.mem_ctrls.avgRdBW                        58.31                       # Average DRAM read bandwidth in MiByte/s
system.mem_ctrls.avgWrBW                        56.01                       # Average achieved write bandwidth in MiByte/s
system.mem_ctrls.avgRdBWSys                     58.31                       # Average system read bandwidth in MiByte/s
system.mem_ctrls.avgWrBWSys                     55.98                       # Average system write bandwidth in MiByte/s
system.mem_ctrls.peakBW                      12800.00                       # Theoretical peak bandwidth in MiByte/s
system.mem_ctrls.busUtil                         0.89                       # Data bus utilization in percentage
system.mem_ctrls.busUtilRead                     0.46                       # Data bus utilization in percentage for reads
system.mem_ctrls.busUtilWrite                    0.44                       # Data bus utilization in percentage for writes
system.mem_ctrls.avgRdQLen                       1.06                       # Average read queue length when enqueuing
system.mem_ctrls.avgWrQLen                      24.84                       # Average write queue length when enqueuing
system.mem_ctrls.readRowHits                     5068                       # Number of row buffer hits during reads
system.mem_ctrls.writeRowHits                    5927                       # Number of row buffer hits during writes
system.mem_ctrls.readRowHitRate                 36.43                       # Row buffer hit rate for reads
system.mem_ctrls.writeRowHitRate                44.38                       # Row buffer hit rate for writes
system.mem_ctrls.avgGap                     559974.99                       # Average gap between requests
system.mem_ctrls.pageHitRate                    40.33                       # Row buffer hit rate, read and write combined
system.mem_ctrls_0.actEnergy                 56698740                       # Energy for activate commands per rank (pJ)
system.mem_ctrls_0.preEnergy                 30124710                       # Energy for precharge commands per rank (pJ)
system.mem_ctrls_0.readEnergy                49030380                       # Energy for read commands per rank (pJ)
system.mem_ctrls_0.writeEnergy               34123140                       # Energy for write commands per rank (pJ)
system.mem_ctrls_0.refreshEnergy         1224362880.000000                       # Energy for refresh commands per rank (pJ)
system.mem_ctrls_0.actBackEnergy            848791560                       # Energy for active background per rank (pJ)
system.mem_ctrls_0.preBackEnergy             37036800                       # Energy for precharge background per rank (pJ)
system.mem_ctrls_0.actPowerDownEnergy      4399567800                       # Energy for active power-down per rank (pJ)
system.mem_ctrls_0.prePowerDownEnergy      1278864000                       # Energy for precharge power-down per rank (pJ)
system.mem_ctrls_0.selfRefreshEnergy        123057060                       # Energy for self refresh per rank (pJ)
system.mem_ctrls_0.totalEnergy             8081893650                       # Total energy per rank (pJ)
system.mem_ctrls_0.averagePower            529.358190                       # Core power per rank (mW)
system.mem_ctrls_0.totalIdleTime          13306921750                       # Total Idle time Per DRAM Rank
system.mem_ctrls_0.memoryStateTime::IDLE     39714000                       # Time in different power states
system.mem_ctrls_0.memoryStateTime::REF     518418000                       # Time in different power states
system.mem_ctrls_0.memoryStateTime::SREF    330441750                       # Time in different power states
system.mem_ctrls_0.memoryStateTime::PRE_PDN   3330431750                       # Time in different power states
system.mem_ctrls_0.memoryStateTime::ACT    1400153500                       # Time in different power states
system.mem_ctrls_0.memoryStateTime::ACT_PDN   9648185125                       # Time in different power states
system.mem_ctrls_1.actEnergy                 59511900                       # Energy for activate commands per rank (pJ)
system.mem_ctrls_1.preEnergy                 31635120                       # Energy for precharge commands per rank (pJ)
system.mem_ctrls_1.readEnergy                50287020                       # Energy for read commands per rank (pJ)
system.mem_ctrls_1.writeEnergy               35621280                       # Energy for write commands per rank (pJ)
system.mem_ctrls_1.refreshEnergy         1225592160.000000                       # Energy for refresh commands per rank (pJ)
system.mem_ctrls_1.actBackEnergy            859767480                       # Energy for active background per rank (pJ)
system.mem_ctrls_1.preBackEnergy             35059200                       # Energy for precharge background per rank (pJ)
system.mem_ctrls_1.actPowerDownEnergy      4327446270                       # Energy for active power-down per rank (pJ)
system.mem_ctrls_1.prePowerDownEnergy      1314304800                       # Energy for precharge power-down per rank (pJ)
system.mem_ctrls_1.selfRefreshEnergy        139294620                       # Energy for self refresh per rank (pJ)
system.mem_ctrls_1.totalEnergy             8078943990                       # Total energy per rank (pJ)
system.mem_ctrls_1.averagePower            529.164989                       # Core power per rank (mW)
system.mem_ctrls_1.totalIdleTime          13286598500                       # Total Idle time Per DRAM Rank
system.mem_ctrls_1.memoryStateTime::IDLE     34147500                       # Time in different power states
system.mem_ctrls_1.memoryStateTime::REF     519022000                       # Time in different power states
system.mem_ctrls_1.memoryStateTime::SREF    376946750                       # Time in different power states
system.mem_ctrls_1.memoryStateTime::PRE_PDN   3422464500                       # Time in different power states
system.mem_ctrls_1.memoryStateTime::ACT    1424959750                       # Time in different power states
system.mem_ctrls_1.memoryStateTime::ACT_PDN   9489803625                       # Time in different power states
system.pwrStateResidencyTicks::UNDEFINED  15267344125                       # Cumulative time (in ticks) in various power states
system.cpu0.branchPred.lookups               13386876                       # Number of BP lookups
system.cpu0.branchPred.condPredicted         13386876                       # Number of conditional branches predicted
system.cpu0.branchPred.condIncorrect          1394997                       # Number of conditional branches incorrect
system.cpu0.branchPred.BTBLookups            11245843                       # Number of BTB lookups
system.cpu0.branchPred.BTBHits                      0                       # Number of BTB hits
system.cpu0.branchPred.BTBCorrect                   0                       # Number of correct BTB predictions (this stat may not work properly.
system.cpu0.branchPred.BTBHitPct             0.000000                       # BTB Hit Percentage
system.cpu0.branchPred.usedRAS                1074255                       # Number of times the RAS was used to get a target.
system.cpu0.branchPred.RASInCorrect            195035                       # Number of incorrect RAS predictions.
system.cpu0.branchPred.indirectLookups       11245843                       # Number of indirect predictor lookups.
system.cpu0.branchPred.indirectHits           2704024                       # Number of indirect target hits.
system.cpu0.branchPred.indirectMisses         8541819                       # Number of indirect misses.
system.cpu0.branchPredindirectMispredicted       911230                       # Number of mispredicted indirect branches.
system.cpu_voltage_domain.voltage                   1                       # Voltage in Volts
system.cpu_clk_domain.clock                       500                       # Clock period in ticks
system.cpu0.dtb.walker.pwrStateResidencyTicks::UNDEFINED  15267344125                       # Cumulative time (in ticks) in various power states
system.cpu0.dtb.rdAccesses                    7052055                       # TLB accesses on read requests
system.cpu0.dtb.wrAccesses                    2380634                       # TLB accesses on write requests
system.cpu0.dtb.rdMisses                        86697                       # TLB misses on read requests
system.cpu0.dtb.wrMisses                        16393                       # TLB misses on write requests
system.cpu0.apic_clk_domain.clock                8000                       # Clock period in ticks
system.cpu0.interrupts.pwrStateResidencyTicks::UNDEFINED  15267344125                       # Cumulative time (in ticks) in various power states
system.cpu0.itb.walker.pwrStateResidencyTicks::UNDEFINED  15267344125                       # Cumulative time (in ticks) in various power states
system.cpu0.itb.rdAccesses                          0                       # TLB accesses on read requests
system.cpu0.itb.wrAccesses                    6622145                       # TLB accesses on write requests
system.cpu0.itb.rdMisses                            0                       # TLB misses on read requests
system.cpu0.itb.wrMisses                         2679                       # TLB misses on write requests
system.cpu0.workload.numSyscalls                   20                       # Number of system calls
system.cpu0.pwrStateResidencyTicks::ON    15267344125                       # Cumulative time (in ticks) in various power states
system.cpu0.numCycles                        30534688                       # number of cpu cycles simulated
system.cpu0.numWorkItemsStarted                     0                       # number of work items this cpu started
system.cpu0.numWorkItemsCompleted                   0                       # number of work items this cpu completed
system.cpu0.fetch.icacheStallCycles           7504989                       # Number of cycles fetch is stalled on an Icache miss
system.cpu0.fetch.Insts                      57219313                       # Number of instructions fetch has processed
system.cpu0.fetch.Branches                   13386876                       # Number of branches that fetch encountered
system.cpu0.fetch.predictedBranches           3778279                       # Number of branches that fetch has predicted taken
system.cpu0.fetch.Cycles                     21611864                       # Number of cycles fetch has run and was not squashing or blocked
system.cpu0.fetch.SquashCycles                2792280                       # Number of cycles fetch has spent squashing
system.cpu0.fetch.TlbCycles                         2                       # Number of cycles fetch has spent waiting for tlb
system.cpu0.fetch.MiscStallCycles                 957                       # Number of cycles fetch has spent waiting on interrupts, or bad addresses, or out of MSHRs
system.cpu0.fetch.PendingTrapStallCycles        15234                       # Number of stall cycles due to pending traps
system.cpu0.fetch.CacheLines                  6619466                       # Number of cache lines fetched
system.cpu0.fetch.IcacheSquashes               326944                       # Number of outstanding Icache misses that were squashed
system.cpu0.fetch.rateDist::samples          30529186                       # Number of instructions fetched each cycle (Total)
system.cpu0.fetch.rateDist::mean             4.077235                       # Number of instructions fetched each cycle (Total)
system.cpu0.fetch.rateDist::stdev            3.666915                       # Number of instructions fetched each cycle (Total)
system.cpu0.fetch.rateDist::underflows              0      0.00%      0.00% # Number of instructions fetched each cycle (Total)
system.cpu0.fetch.rateDist::0                11920453     39.05%     39.05% # Number of instructions fetched each cycle (Total)
system.cpu0.fetch.rateDist::1                  533779      1.75%     40.79% # Number of instructions fetched each cycle (Total)
system.cpu0.fetch.rateDist::2                  902801      2.96%     43.75% # Number of instructions fetched each cycle (Total)
system.cpu0.fetch.rateDist::3                 1360629      4.46%     48.21% # Number of instructions fetched each cycle (Total)
system.cpu0.fetch.rateDist::4                  605958      1.98%     50.19% # Number of instructions fetched each cycle (Total)
system.cpu0.fetch.rateDist::5                 1159742      3.80%     53.99% # Number of instructions fetched each cycle (Total)
system.cpu0.fetch.rateDist::6                 1019883      3.34%     57.33% # Number of instructions fetched each cycle (Total)
system.cpu0.fetch.rateDist::7                  495968      1.62%     58.96% # Number of instructions fetched each cycle (Total)
system.cpu0.fetch.rateDist::8                12529973     41.04%    100.00% # Number of instructions fetched each cycle (Total)
system.cpu0.fetch.rateDist::overflows               0      0.00%    100.00% # Number of instructions fetched each cycle (Total)
system.cpu0.fetch.rateDist::min_value               0                       # Number of instructions fetched each cycle (Total)
system.cpu0.fetch.rateDist::max_value               8                       # Number of instructions fetched each cycle (Total)
system.cpu0.fetch.rateDist::total            30529186                       # Number of instructions fetched each cycle (Total)
system.cpu0.fetch.branchRate                 0.438415                       # Number of branch fetches per cycle
system.cpu0.fetch.rate                       1.873912                       # Number of inst fetches per cycle
system.cpu0.decode.IdleCycles                 5684598                       # Number of cycles decode is idle
system.cpu0.decode.BlockedCycles              8042491                       # Number of cycles decode is blocked
system.cpu0.decode.RunCycles                 13975744                       # Number of cycles decode is running
system.cpu0.decode.UnblockCycles              1430213                       # Number of cycles decode is unblocking
system.cpu0.decode.SquashCycles               1396140                       # Number of cycles decode is squashing
system.cpu0.decode.DecodedInsts             111653878                       # Number of instructions handled by decode
system.cpu0.rename.SquashCycles               1396140                       # Number of cycles rename is squashing
system.cpu0.rename.IdleCycles                 6759617                       # Number of cycles rename is idle
system.cpu0.rename.BlockCycles                6720654                       # Number of cycles rename is blocking
system.cpu0.rename.serializeStallCycles        216304                       # count of cycles rename stalled for serializing inst
system.cpu0.rename.RunCycles                 14115108                       # Number of cycles rename is running
system.cpu0.rename.UnblockCycles              1321363                       # Number of cycles rename is unblocking
system.cpu0.rename.RenamedInsts             104394377                       # Number of instructions processed by rename
system.cpu0.rename.ROBFullEvents                27066                       # Number of times rename has blocked due to ROB full
system.cpu0.rename.IQFullEvents                677399                       # Number of times rename has blocked due to IQ full
system.cpu0.rename.LQFullEvents                   145                       # Number of times rename has blocked due to LQ full
system.cpu0.rename.SQFullEvents                417601                       # Number of times rename has blocked due to SQ full
system.cpu0.rename.RenamedOperands          117398857                       # Number of destination operands rename has renamed
system.cpu0.rename.RenameLookups            258665567                       # Number of register rename lookups that rename has made
system.cpu0.rename.int_rename_lookups       141913295                       # Number of integer rename lookups
system.cpu0.rename.fp_rename_lookups         19784298                       # Number of floating rename lookups
system.cpu0.rename.CommittedMaps             48890395                       # Number of HB maps that are committed
system.cpu0.rename.UndoneMaps                68508453                       # Number of HB maps that are undone due to squashing
system.cpu0.rename.serializingInsts             30957                       # count of serializing insts renamed
system.cpu0.rename.tempSerializingInsts         33179                       # count of temporary serializing insts renamed
system.cpu0.rename.skidInsts                  3143761                       # count of insts added to the skid buffer
system.cpu0.memDep0.insertedLoads             9617899                       # Number of loads inserted to the mem dependence unit.
system.cpu0.memDep0.insertedStores            3305578                       # Number of stores inserted to the mem dependence unit.
system.cpu0.memDep0.conflictingLoads           158332                       # Number of conflicting loads.
system.cpu0.memDep0.conflictingStores          161042                       # Number of conflicting stores.
system.cpu0.iq.iqInstsAdded                  90501074                       # Number of instructions added to the IQ (excludes non-spec)
system.cpu0.iq.iqNonSpecInstsAdded             211062                       # Number of non-speculative instructions added to the IQ
system.cpu0.iq.iqInstsIssued                 71967390                       # Number of instructions issued
system.cpu0.iq.iqSquashedInstsIssued           699990                       # Number of squashed instructions issued
system.cpu0.iq.iqSquashedInstsExamined       48542741                       # Number of squashed instructions iterated over during squash; mainly for profiling
system.cpu0.iq.iqSquashedOperandsExamined     70018613                       # Number of squashed operands that are examined and possibly removed from graph
system.cpu0.iq.iqSquashedNonSpecRemoved        210952                       # Number of squashed non-spec instructions that were removed
system.cpu0.iq.issued_per_cycle::samples     30529186                       # Number of insts issued each cycle
system.cpu0.iq.issued_per_cycle::mean        2.357331                       # Number of insts issued each cycle
system.cpu0.iq.issued_per_cycle::stdev       2.601974                       # Number of insts issued each cycle
system.cpu0.iq.issued_per_cycle::underflows            0      0.00%      0.00% # Number of insts issued each cycle
system.cpu0.iq.issued_per_cycle::0           13144333     43.05%     43.05% # Number of insts issued each cycle
system.cpu0.iq.issued_per_cycle::1            2229138      7.30%     50.36% # Number of insts issued each cycle
system.cpu0.iq.issued_per_cycle::2            2758625      9.04%     59.39% # Number of insts issued each cycle
system.cpu0.iq.issued_per_cycle::3            2327704      7.62%     67.02% # Number of insts issued each cycle
system.cpu0.iq.issued_per_cycle::4            2373876      7.78%     74.79% # Number of insts issued each cycle
system.cpu0.iq.issued_per_cycle::5            2262991      7.41%     82.21% # Number of insts issued each cycle
system.cpu0.iq.issued_per_cycle::6            2690764      8.81%     91.02% # Number of insts issued each cycle
system.cpu0.iq.issued_per_cycle::7            1651193      5.41%     96.43% # Number of insts issued each cycle
system.cpu0.iq.issued_per_cycle::8            1090562      3.57%    100.00% # Number of insts issued each cycle
system.cpu0.iq.issued_per_cycle::overflows            0      0.00%    100.00% # Number of insts issued each cycle
system.cpu0.iq.issued_per_cycle::min_value            0                       # Number of insts issued each cycle
system.cpu0.iq.issued_per_cycle::max_value            8                       # Number of insts issued each cycle
system.cpu0.iq.issued_per_cycle::total       30529186                       # Number of insts issued each cycle
system.cpu0.iq.fu_full::No_OpClass                  0      0.00%      0.00% # attempts to use FU when none available
system.cpu0.iq.fu_full::IntAlu                1483516     92.96%     92.96% # attempts to use FU when none available
system.cpu0.iq.fu_full::IntMult                     0      0.00%     92.96% # attempts to use FU when none available
system.cpu0.iq.fu_full::IntDiv                      0      0.00%     92.96% # attempts to use FU when none available
system.cpu0.iq.fu_full::FloatAdd                82856      5.19%     98.16% # attempts to use FU when none available
system.cpu0.iq.fu_full::FloatCmp                    0      0.00%     98.16% # attempts to use FU when none available
system.cpu0.iq.fu_full::FloatCvt                    0      0.00%     98.16% # attempts to use FU when none available
system.cpu0.iq.fu_full::FloatMult                   0      0.00%     98.16% # attempts to use FU when none available
system.cpu0.iq.fu_full::FloatMultAcc                0      0.00%     98.16% # attempts to use FU when none available
system.cpu0.iq.fu_full::FloatDiv                    0      0.00%     98.16% # attempts to use FU when none available
system.cpu0.iq.fu_full::FloatMisc                   0      0.00%     98.16% # attempts to use FU when none available
system.cpu0.iq.fu_full::FloatSqrt                   0      0.00%     98.16% # attempts to use FU when none available
system.cpu0.iq.fu_full::SimdAdd                     0      0.00%     98.16% # attempts to use FU when none available
system.cpu0.iq.fu_full::SimdAddAcc                  0      0.00%     98.16% # attempts to use FU when none available
system.cpu0.iq.fu_full::SimdAlu                     0      0.00%     98.16% # attempts to use FU when none available
system.cpu0.iq.fu_full::SimdCmp                     0      0.00%     98.16% # attempts to use FU when none available
system.cpu0.iq.fu_full::SimdCvt                     0      0.00%     98.16% # attempts to use FU when none available
system.cpu0.iq.fu_full::SimdMisc                    0      0.00%     98.16% # attempts to use FU when none available
system.cpu0.iq.fu_full::SimdMult                    0      0.00%     98.16% # attempts to use FU when none available
system.cpu0.iq.fu_full::SimdMultAcc                 0      0.00%     98.16% # attempts to use FU when none available
system.cpu0.iq.fu_full::SimdShift                   0      0.00%     98.16% # attempts to use FU when none available
system.cpu0.iq.fu_full::SimdShiftAcc                0      0.00%     98.16% # attempts to use FU when none available
system.cpu0.iq.fu_full::SimdSqrt                    0      0.00%     98.16% # attempts to use FU when none available
system.cpu0.iq.fu_full::SimdFloatAdd                0      0.00%     98.16% # attempts to use FU when none available
system.cpu0.iq.fu_full::SimdFloatAlu                0      0.00%     98.16% # attempts to use FU when none available
system.cpu0.iq.fu_full::SimdFloatCmp                0      0.00%     98.16% # attempts to use FU when none available
system.cpu0.iq.fu_full::SimdFloatCvt                0      0.00%     98.16% # attempts to use FU when none available
system.cpu0.iq.fu_full::SimdFloatDiv                0      0.00%     98.16% # attempts to use FU when none available
system.cpu0.iq.fu_full::SimdFloatMisc               0      0.00%     98.16% # attempts to use FU when none available
system.cpu0.iq.fu_full::SimdFloatMult               0      0.00%     98.16% # attempts to use FU when none available
system.cpu0.iq.fu_full::SimdFloatMultAcc            0      0.00%     98.16% # attempts to use FU when none available
system.cpu0.iq.fu_full::SimdFloatSqrt               0      0.00%     98.16% # attempts to use FU when none available
system.cpu0.iq.fu_full::MemRead                  4394      0.28%     98.43% # attempts to use FU when none available
system.cpu0.iq.fu_full::MemWrite                 1583      0.10%     98.53% # attempts to use FU when none available
system.cpu0.iq.fu_full::FloatMemRead            23050      1.44%     99.97% # attempts to use FU when none available
system.cpu0.iq.fu_full::FloatMemWrite             409      0.03%    100.00% # attempts to use FU when none available
system.cpu0.iq.fu_full::IprAccess                   0      0.00%    100.00% # attempts to use FU when none available
system.cpu0.iq.fu_full::InstPrefetch                0      0.00%    100.00% # attempts to use FU when none available
system.cpu0.iq.FU_type_0::No_OpClass          1865671      2.59%      2.59% # Type of FU issued
system.cpu0.iq.FU_type_0::IntAlu             54682771     75.98%     78.58% # Type of FU issued
system.cpu0.iq.FU_type_0::IntMult                2459      0.00%     78.58% # Type of FU issued
system.cpu0.iq.FU_type_0::IntDiv                76502      0.11%     78.68% # Type of FU issued
system.cpu0.iq.FU_type_0::FloatAdd            5054568      7.02%     85.71% # Type of FU issued
system.cpu0.iq.FU_type_0::FloatCmp                  0      0.00%     85.71% # Type of FU issued
system.cpu0.iq.FU_type_0::FloatCvt                  0      0.00%     85.71% # Type of FU issued
system.cpu0.iq.FU_type_0::FloatMult                 0      0.00%     85.71% # Type of FU issued
system.cpu0.iq.FU_type_0::FloatMultAcc              0      0.00%     85.71% # Type of FU issued
system.cpu0.iq.FU_type_0::FloatDiv                  0      0.00%     85.71% # Type of FU issued
system.cpu0.iq.FU_type_0::FloatMisc                 0      0.00%     85.71% # Type of FU issued
system.cpu0.iq.FU_type_0::FloatSqrt                 0      0.00%     85.71% # Type of FU issued
system.cpu0.iq.FU_type_0::SimdAdd                   0      0.00%     85.71% # Type of FU issued
system.cpu0.iq.FU_type_0::SimdAddAcc                0      0.00%     85.71% # Type of FU issued
system.cpu0.iq.FU_type_0::SimdAlu                   0      0.00%     85.71% # Type of FU issued
system.cpu0.iq.FU_type_0::SimdCmp                   0      0.00%     85.71% # Type of FU issued
system.cpu0.iq.FU_type_0::SimdCvt                   0      0.00%     85.71% # Type of FU issued
system.cpu0.iq.FU_type_0::SimdMisc                  0      0.00%     85.71% # Type of FU issued
system.cpu0.iq.FU_type_0::SimdMult                  0      0.00%     85.71% # Type of FU issued
system.cpu0.iq.FU_type_0::SimdMultAcc               0      0.00%     85.71% # Type of FU issued
system.cpu0.iq.FU_type_0::SimdShift                 0      0.00%     85.71% # Type of FU issued
system.cpu0.iq.FU_type_0::SimdShiftAcc              0      0.00%     85.71% # Type of FU issued
system.cpu0.iq.FU_type_0::SimdSqrt                  0      0.00%     85.71% # Type of FU issued
system.cpu0.iq.FU_type_0::SimdFloatAdd              0      0.00%     85.71% # Type of FU issued
system.cpu0.iq.FU_type_0::SimdFloatAlu              0      0.00%     85.71% # Type of FU issued
system.cpu0.iq.FU_type_0::SimdFloatCmp              0      0.00%     85.71% # Type of FU issued
system.cpu0.iq.FU_type_0::SimdFloatCvt              0      0.00%     85.71% # Type of FU issued
system.cpu0.iq.FU_type_0::SimdFloatDiv              0      0.00%     85.71% # Type of FU issued
system.cpu0.iq.FU_type_0::SimdFloatMisc             0      0.00%     85.71% # Type of FU issued
system.cpu0.iq.FU_type_0::SimdFloatMult             0      0.00%     85.71% # Type of FU issued
system.cpu0.iq.FU_type_0::SimdFloatMultAcc            0      0.00%     85.71% # Type of FU issued
system.cpu0.iq.FU_type_0::SimdFloatSqrt             0      0.00%     85.71% # Type of FU issued
system.cpu0.iq.FU_type_0::MemRead             5221008      7.25%     92.96% # Type of FU issued
system.cpu0.iq.FU_type_0::MemWrite            2588448      3.60%     96.56% # Type of FU issued
system.cpu0.iq.FU_type_0::FloatMemRead        2474675      3.44%    100.00% # Type of FU issued
system.cpu0.iq.FU_type_0::FloatMemWrite          1288      0.00%    100.00% # Type of FU issued
system.cpu0.iq.FU_type_0::IprAccess                 0      0.00%    100.00% # Type of FU issued
system.cpu0.iq.FU_type_0::InstPrefetch              0      0.00%    100.00% # Type of FU issued
system.cpu0.iq.FU_type_0::total              71967390                       # Type of FU issued
system.cpu0.iq.rate                          2.356906                       # Inst issue rate
system.cpu0.iq.fu_busy_cnt                    1595808                       # FU busy when requested
system.cpu0.iq.fu_busy_rate                  0.022174                       # FU busy rate (busy events/executed inst)
system.cpu0.iq.int_inst_queue_reads         161287419                       # Number of integer instruction queue reads
system.cpu0.iq.int_inst_queue_writes        120831193                       # Number of integer instruction queue writes
system.cpu0.iq.int_inst_queue_wakeup_accesses     60799519                       # Number of integer instruction queue wakeup accesses
system.cpu0.iq.fp_inst_queue_reads           15472341                       # Number of floating instruction queue reads
system.cpu0.iq.fp_inst_queue_writes          18423933                       # Number of floating instruction queue writes
system.cpu0.iq.fp_inst_queue_wakeup_accesses      6857418                       # Number of floating instruction queue wakeup accesses
system.cpu0.iq.vec_inst_queue_reads                 0                       # Number of vector instruction queue reads
system.cpu0.iq.vec_inst_queue_writes                0                       # Number of vector instruction queue writes
system.cpu0.iq.vec_inst_queue_wakeup_accesses            0                       # Number of vector instruction queue wakeup accesses
system.cpu0.iq.int_alu_accesses              63955747                       # Number of integer alu accesses
system.cpu0.iq.fp_alu_accesses                7741780                       # Number of floating point alu accesses
system.cpu0.iq.vec_alu_accesses                     0                       # Number of vector alu accesses
system.cpu0.iew.lsq.thread0.forwLoads          214709                       # Number of loads that had data forwarded from stores
system.cpu0.iew.lsq.thread0.invAddrLoads            0                       # Number of loads ignored due to an invalid address
system.cpu0.iew.lsq.thread0.squashedLoads      5849518                       # Number of loads squashed
system.cpu0.iew.lsq.thread0.ignoredResponses         3721                       # Number of memory responses ignored because the instruction is squashed
system.cpu0.iew.lsq.thread0.memOrderViolation          286                       # Number of memory ordering violations
system.cpu0.iew.lsq.thread0.squashedStores      1606857                       # Number of stores squashed
system.cpu0.iew.lsq.thread0.invAddrSwpfs            0                       # Number of software prefetches ignored due to an invalid address
system.cpu0.iew.lsq.thread0.blockedLoads            0                       # Number of blocked loads due to partial load-store forwarding
system.cpu0.iew.lsq.thread0.rescheduledLoads         3380                       # Number of loads that were rescheduled
system.cpu0.iew.lsq.thread0.cacheBlocked           12                       # Number of times an access to memory failed due to the cache being blocked
system.cpu0.iew.iewIdleCycles                       0                       # Number of cycles IEW is idle
system.cpu0.iew.iewSquashCycles               1396140                       # Number of cycles IEW is squashing
system.cpu0.iew.iewBlockCycles                6211514                       # Number of cycles IEW is blocking
system.cpu0.iew.iewUnblockCycles                 9228                       # Number of cycles IEW is unblocking
system.cpu0.iew.iewDispatchedInsts           90712136                       # Number of instructions dispatched to IQ
system.cpu0.iew.iewDispSquashedInsts            49066                       # Number of squashed instructions skipped by dispatch
system.cpu0.iew.iewDispLoadInsts              9617899                       # Number of dispatched load instructions
system.cpu0.iew.iewDispStoreInsts             3305578                       # Number of dispatched store instructions
system.cpu0.iew.iewDispNonSpecInsts             86699                       # Number of dispatched non-speculative instructions
system.cpu0.iew.iewIQFullEvents                  3845                       # Number of times the IQ has become full, causing a stall
system.cpu0.iew.iewLSQFullEvents                 3937                       # Number of times the LSQ has become full, causing a stall
system.cpu0.iew.memOrderViolationEvents           286                       # Number of memory order violations
system.cpu0.iew.predictedTakenIncorrect        425312                       # Number of branches that were predicted taken incorrectly
system.cpu0.iew.predictedNotTakenIncorrect      1323779                       # Number of branches that were predicted not taken incorrectly
system.cpu0.iew.branchMispredicts             1749091                       # Number of branch mispredicts detected at execute
system.cpu0.iew.iewExecutedInsts             68860772                       # Number of executed instructions
system.cpu0.iew.iewExecLoadInsts              7015816                       # Number of load instructions executed
system.cpu0.iew.iewExecSquashedInsts          3106614                       # Number of squashed instructions skipped in execute
system.cpu0.iew.exec_swp                            0                       # number of swp insts executed
system.cpu0.iew.exec_nop                            0                       # number of nop insts executed
system.cpu0.iew.exec_refs                     9395696                       # number of memory reference insts executed
system.cpu0.iew.exec_branches                 6330241                       # Number of branches executed
system.cpu0.iew.exec_stores                   2379880                       # Number of stores executed
system.cpu0.iew.exec_rate                    2.255165                       # Inst execution rate
system.cpu0.iew.wb_sent                      68223311                       # cumulative count of insts sent to commit
system.cpu0.iew.wb_count                     67656937                       # cumulative count of insts written-back
system.cpu0.iew.wb_producers                 50093160                       # num instructions producing a value
system.cpu0.iew.wb_consumers                 88918573                       # num instructions consuming a value
system.cpu0.iew.wb_rate                      2.215740                       # insts written-back per cycle
system.cpu0.iew.wb_fanout                    0.563360                       # average fanout of values written-back
system.cpu0.commit.commitSquashedInsts       48542831                       # The number of squashed insts skipped by commit
system.cpu0.commit.commitNonSpecStalls            110                       # The number of times commit has been forced to stall to communicate backwards
system.cpu0.commit.branchMispredicts          1395969                       # The number of times a branch was mispredicted
system.cpu0.commit.committed_per_cycle::samples     23159400                       # Number of insts commited each cycle
system.cpu0.commit.committed_per_cycle::mean     1.820833                       # Number of insts commited each cycle
system.cpu0.commit.committed_per_cycle::stdev     2.425423                       # Number of insts commited each cycle
system.cpu0.commit.committed_per_cycle::underflows            0      0.00%      0.00% # Number of insts commited each cycle
system.cpu0.commit.committed_per_cycle::0     10543923     45.53%     45.53% # Number of insts commited each cycle
system.cpu0.commit.committed_per_cycle::1      3073550     13.27%     58.80% # Number of insts commited each cycle
system.cpu0.commit.committed_per_cycle::2      3450636     14.90%     73.70% # Number of insts commited each cycle
system.cpu0.commit.committed_per_cycle::3      1871454      8.08%     81.78% # Number of insts commited each cycle
system.cpu0.commit.committed_per_cycle::4       966553      4.17%     85.95% # Number of insts commited each cycle
system.cpu0.commit.committed_per_cycle::5       775903      3.35%     89.30% # Number of insts commited each cycle
system.cpu0.commit.committed_per_cycle::6       328578      1.42%     90.72% # Number of insts commited each cycle
system.cpu0.commit.committed_per_cycle::7       327409      1.41%     92.14% # Number of insts commited each cycle
system.cpu0.commit.committed_per_cycle::8      1821394      7.86%    100.00% # Number of insts commited each cycle
system.cpu0.commit.committed_per_cycle::overflows            0      0.00%    100.00% # Number of insts commited each cycle
system.cpu0.commit.committed_per_cycle::min_value            0                       # Number of insts commited each cycle
system.cpu0.commit.committed_per_cycle::max_value            8                       # Number of insts commited each cycle
system.cpu0.commit.committed_per_cycle::total     23159400                       # Number of insts commited each cycle
system.cpu0.commit.committedInsts            19189122                       # Number of instructions committed
system.cpu0.commit.committedOps              42169394                       # Number of ops (including micro ops) committed
system.cpu0.commit.swp_count                        0                       # Number of s/w prefetches committed
system.cpu0.commit.refs                       5467102                       # Number of memory references committed
system.cpu0.commit.loads                      3768381                       # Number of loads committed
system.cpu0.commit.membars                         60                       # Number of memory barriers committed
system.cpu0.commit.branches                   4413581                       # Number of branches committed
system.cpu0.commit.vec_insts                        0                       # Number of committed Vector instructions.
system.cpu0.commit.fp_insts                   3143577                       # Number of committed floating point instructions.
system.cpu0.commit.int_insts                 39474665                       # Number of committed integer instructions.
system.cpu0.commit.function_calls              377707                       # Number of function calls committed.
system.cpu0.commit.op_class_0::No_OpClass       720044      1.71%      1.71% # Class of committed instruction
system.cpu0.commit.op_class_0::IntAlu        33560032     79.58%     81.29% # Class of committed instruction
system.cpu0.commit.op_class_0::IntMult            698      0.00%     81.29% # Class of committed instruction
system.cpu0.commit.op_class_0::IntDiv           50752      0.12%     81.41% # Class of committed instruction
system.cpu0.commit.op_class_0::FloatAdd       2370766      5.62%     87.04% # Class of committed instruction
system.cpu0.commit.op_class_0::FloatCmp             0      0.00%     87.04% # Class of committed instruction
system.cpu0.commit.op_class_0::FloatCvt             0      0.00%     87.04% # Class of committed instruction
system.cpu0.commit.op_class_0::FloatMult            0      0.00%     87.04% # Class of committed instruction
system.cpu0.commit.op_class_0::FloatMultAcc            0      0.00%     87.04% # Class of committed instruction
system.cpu0.commit.op_class_0::FloatDiv             0      0.00%     87.04% # Class of committed instruction
system.cpu0.commit.op_class_0::FloatMisc            0      0.00%     87.04% # Class of committed instruction
system.cpu0.commit.op_class_0::FloatSqrt            0      0.00%     87.04% # Class of committed instruction
system.cpu0.commit.op_class_0::SimdAdd              0      0.00%     87.04% # Class of committed instruction
system.cpu0.commit.op_class_0::SimdAddAcc            0      0.00%     87.04% # Class of committed instruction
system.cpu0.commit.op_class_0::SimdAlu              0      0.00%     87.04% # Class of committed instruction
system.cpu0.commit.op_class_0::SimdCmp              0      0.00%     87.04% # Class of committed instruction
system.cpu0.commit.op_class_0::SimdCvt              0      0.00%     87.04% # Class of committed instruction
system.cpu0.commit.op_class_0::SimdMisc             0      0.00%     87.04% # Class of committed instruction
system.cpu0.commit.op_class_0::SimdMult             0      0.00%     87.04% # Class of committed instruction
system.cpu0.commit.op_class_0::SimdMultAcc            0      0.00%     87.04% # Class of committed instruction
system.cpu0.commit.op_class_0::SimdShift            0      0.00%     87.04% # Class of committed instruction
system.cpu0.commit.op_class_0::SimdShiftAcc            0      0.00%     87.04% # Class of committed instruction
system.cpu0.commit.op_class_0::SimdSqrt             0      0.00%     87.04% # Class of committed instruction
system.cpu0.commit.op_class_0::SimdFloatAdd            0      0.00%     87.04% # Class of committed instruction
system.cpu0.commit.op_class_0::SimdFloatAlu            0      0.00%     87.04% # Class of committed instruction
system.cpu0.commit.op_class_0::SimdFloatCmp            0      0.00%     87.04% # Class of committed instruction
system.cpu0.commit.op_class_0::SimdFloatCvt            0      0.00%     87.04% # Class of committed instruction
system.cpu0.commit.op_class_0::SimdFloatDiv            0      0.00%     87.04% # Class of committed instruction
system.cpu0.commit.op_class_0::SimdFloatMisc            0      0.00%     87.04% # Class of committed instruction
system.cpu0.commit.op_class_0::SimdFloatMult            0      0.00%     87.04% # Class of committed instruction
system.cpu0.commit.op_class_0::SimdFloatMultAcc            0      0.00%     87.04% # Class of committed instruction
system.cpu0.commit.op_class_0::SimdFloatSqrt            0      0.00%     87.04% # Class of committed instruction
system.cpu0.commit.op_class_0::MemRead        3005591      7.13%     94.16% # Class of committed instruction
system.cpu0.commit.op_class_0::MemWrite       1698721      4.03%     98.19% # Class of committed instruction
system.cpu0.commit.op_class_0::FloatMemRead       762790      1.81%    100.00% # Class of committed instruction
system.cpu0.commit.op_class_0::FloatMemWrite            0      0.00%    100.00% # Class of committed instruction
system.cpu0.commit.op_class_0::IprAccess            0      0.00%    100.00% # Class of committed instruction
system.cpu0.commit.op_class_0::InstPrefetch            0      0.00%    100.00% # Class of committed instruction
system.cpu0.commit.op_class_0::total         42169394                       # Class of committed instruction
system.cpu0.commit.bw_lim_events              1821394                       # number cycles where commit BW limit reached
system.cpu0.rob.rob_reads                   112050231                       # The number of ROB reads
system.cpu0.rob.rob_writes                  188933305                       # The number of ROB writes
system.cpu0.timesIdled                           1243                       # Number of times that the entire CPU went into an idle state and unscheduled itself
system.cpu0.idleCycles                           5502                       # Total number of cycles that the CPU has spent unscheduled due to idling
system.cpu0.committedInsts                   19189122                       # Number of Instructions Simulated
system.cpu0.committedOps                     42169394                       # Number of Ops (including micro ops) Simulated
system.cpu0.cpi                              1.591250                       # CPI: Cycles Per Instruction
system.cpu0.cpi_total                        1.591250                       # CPI: Total CPI of All Threads
system.cpu0.ipc                              0.628437                       # IPC: Instructions Per Cycle
system.cpu0.ipc_total                        0.628437                       # IPC: Total IPC of All Threads
system.cpu0.int_regfile_reads                88064759                       # number of integer regfile reads
system.cpu0.int_regfile_writes               51970563                       # number of integer regfile writes
system.cpu0.fp_regfile_reads                 10824268                       # number of floating regfile reads
system.cpu0.fp_regfile_writes                 6465093                       # number of floating regfile writes
system.cpu0.cc_regfile_reads                 36569806                       # number of cc regfile reads
system.cpu0.cc_regfile_writes                18204122                       # number of cc regfile writes
system.cpu0.misc_regfile_reads               22328061                       # number of misc regfile reads
system.cpu0.dcache.tags.pwrStateResidencyTicks::UNDEFINED  15267344125                       # Cumulative time (in ticks) in various power states
system.cpu0.dcache.tags.replacements            20491                       # number of replacements
system.cpu0.dcache.tags.tagsinuse                 512                       # Cycle average of tags in use
system.cpu0.dcache.tags.total_refs             529124                       # Total number of references to valid blocks.
system.cpu0.dcache.tags.sampled_refs            20491                       # Sample count of references to valid blocks.
system.cpu0.dcache.tags.avg_refs            25.822263                       # Average number of references to valid blocks.
system.cpu0.dcache.tags.warmup_cycle                0                       # Cycle when the warmup percentage was hit.
system.cpu0.dcache.tags.occ_blocks::cpu0.data          512                       # Average occupied blocks per requestor
system.cpu0.dcache.tags.occ_percent::cpu0.data            1                       # Average percentage of cache occupancy
system.cpu0.dcache.tags.occ_percent::total            1                       # Average percentage of cache occupancy
system.cpu0.dcache.tags.occ_task_id_blocks::1024          512                       # Occupied blocks per task id
system.cpu0.dcache.tags.age_task_id_blocks_1024::0           13                       # Occupied blocks per task id
system.cpu0.dcache.tags.age_task_id_blocks_1024::1          130                       # Occupied blocks per task id
system.cpu0.dcache.tags.age_task_id_blocks_1024::2          311                       # Occupied blocks per task id
system.cpu0.dcache.tags.age_task_id_blocks_1024::3            5                       # Occupied blocks per task id
system.cpu0.dcache.tags.age_task_id_blocks_1024::4           53                       # Occupied blocks per task id
system.cpu0.dcache.tags.occ_task_id_percent::1024            1                       # Percentage of cache occupancy per task id
system.cpu0.dcache.tags.tag_accesses         33830167                       # Number of tag accesses
system.cpu0.dcache.tags.data_accesses        33830167                       # Number of data accesses
system.cpu0.dcache.pwrStateResidencyTicks::UNDEFINED  15267344125                       # Cumulative time (in ticks) in various power states
system.cpu0.dcache.ReadReq_hits::cpu0.data      6726828                       # number of ReadReq hits
system.cpu0.dcache.ReadReq_hits::total        6726828                       # number of ReadReq hits
system.cpu0.dcache.WriteReq_hits::cpu0.data      1688699                       # number of WriteReq hits
system.cpu0.dcache.WriteReq_hits::total       1688699                       # number of WriteReq hits
system.cpu0.dcache.demand_hits::cpu0.data      8415527                       # number of demand (read+write) hits
system.cpu0.dcache.demand_hits::total         8415527                       # number of demand (read+write) hits
system.cpu0.dcache.overall_hits::cpu0.data      8415527                       # number of overall hits
system.cpu0.dcache.overall_hits::total        8415527                       # number of overall hits
system.cpu0.dcache.ReadReq_misses::cpu0.data        26567                       # number of ReadReq misses
system.cpu0.dcache.ReadReq_misses::total        26567                       # number of ReadReq misses
system.cpu0.dcache.WriteReq_misses::cpu0.data        10325                       # number of WriteReq misses
system.cpu0.dcache.WriteReq_misses::total        10325                       # number of WriteReq misses
system.cpu0.dcache.demand_misses::cpu0.data        36892                       # number of demand (read+write) misses
system.cpu0.dcache.demand_misses::total         36892                       # number of demand (read+write) misses
system.cpu0.dcache.overall_misses::cpu0.data        36892                       # number of overall misses
system.cpu0.dcache.overall_misses::total        36892                       # number of overall misses
system.cpu0.dcache.ReadReq_miss_latency::cpu0.data   1197538500                       # number of ReadReq miss cycles
system.cpu0.dcache.ReadReq_miss_latency::total   1197538500                       # number of ReadReq miss cycles
system.cpu0.dcache.WriteReq_miss_latency::cpu0.data    937916500                       # number of WriteReq miss cycles
system.cpu0.dcache.WriteReq_miss_latency::total    937916500                       # number of WriteReq miss cycles
system.cpu0.dcache.demand_miss_latency::cpu0.data   2135455000                       # number of demand (read+write) miss cycles
system.cpu0.dcache.demand_miss_latency::total   2135455000                       # number of demand (read+write) miss cycles
system.cpu0.dcache.overall_miss_latency::cpu0.data   2135455000                       # number of overall miss cycles
system.cpu0.dcache.overall_miss_latency::total   2135455000                       # number of overall miss cycles
system.cpu0.dcache.ReadReq_accesses::cpu0.data      6753395                       # number of ReadReq accesses(hits+misses)
system.cpu0.dcache.ReadReq_accesses::total      6753395                       # number of ReadReq accesses(hits+misses)
system.cpu0.dcache.WriteReq_accesses::cpu0.data      1699024                       # number of WriteReq accesses(hits+misses)
system.cpu0.dcache.WriteReq_accesses::total      1699024                       # number of WriteReq accesses(hits+misses)
system.cpu0.dcache.demand_accesses::cpu0.data      8452419                       # number of demand (read+write) accesses
system.cpu0.dcache.demand_accesses::total      8452419                       # number of demand (read+write) accesses
[...]
system.l2.overall_miss_rate::cpu0.inst       0.000713                       # miss rate for overall accesses
system.l2.overall_miss_rate::cpu0.data       0.678688                       # miss rate for overall accesses
system.l2.overall_miss_rate::total           0.563249                       # miss rate for overall accesses
system.l2.ReadExReq_avg_miss_latency::cpu0.data 92771.302381                       # average ReadExReq miss latency
system.l2.ReadExReq_avg_miss_latency::total 92771.302381                       # average ReadExReq miss latency
system.l2.ReadCleanReq_avg_miss_latency::cpu0.inst        85000                       # average ReadCleanReq miss latency
system.l2.ReadCleanReq_avg_miss_latency::total        85000                       # average ReadCleanReq miss latency
system.l2.ReadSharedReq_avg_miss_latency::cpu0.data 108803.308824                       # average ReadSharedReq miss latency
system.l2.ReadSharedReq_avg_miss_latency::total 108803.308824                       # average ReadSharedReq miss latency
system.l2.demand_avg_miss_latency::cpu0.inst        85000                       # average overall miss latency
system.l2.demand_avg_miss_latency::cpu0.data 98101.855181                       # average overall miss latency
system.l2.demand_avg_miss_latency::total 98099.029475                       # average overall miss latency
system.l2.overall_avg_miss_latency::cpu0.inst        85000                       # average overall miss latency
system.l2.overall_avg_miss_latency::cpu0.data 98101.855181                       # average overall miss latency
system.l2.overall_avg_miss_latency::total 98099.029475                       # average overall miss latency
system.l2.blocked_cycles::no_mshrs                  0                       # number of cycles access was blocked
system.l2.blocked_cycles::no_targets                0                       # number of cycles access was blocked
system.l2.blocked::no_mshrs                         0                       # number of cycles access was blocked
system.l2.blocked::no_targets                       0                       # number of cycles access was blocked
system.l2.avg_blocked_cycles::no_mshrs            nan                       # average number of cycles each access was blocked
system.l2.avg_blocked_cycles::no_targets          nan                       # average number of cycles each access was blocked
system.l2.writebacks::writebacks                13355                       # number of writebacks
system.l2.writebacks::total                     13355                       # number of writebacks
system.l2.ReadExReq_mshr_misses::cpu0.data         9283                       # number of ReadExReq MSHR misses
system.l2.ReadExReq_mshr_misses::total           9283                       # number of ReadExReq MSHR misses
system.l2.ReadCleanReq_mshr_misses::cpu0.inst            3                       # number of ReadCleanReq MSHR misses
system.l2.ReadCleanReq_mshr_misses::total            3                       # number of ReadCleanReq MSHR misses
system.l2.ReadSharedReq_mshr_misses::cpu0.data         4624                       # number of ReadSharedReq MSHR misses
system.l2.ReadSharedReq_mshr_misses::total         4624                       # number of ReadSharedReq MSHR misses
system.l2.demand_mshr_misses::cpu0.inst             3                       # number of demand (read+write) MSHR misses
system.l2.demand_mshr_misses::cpu0.data         13907                       # number of demand (read+write) MSHR misses
system.l2.demand_mshr_misses::total             13910                       # number of demand (read+write) MSHR misses
system.l2.overall_mshr_misses::cpu0.inst            3                       # number of overall MSHR misses
system.l2.overall_mshr_misses::cpu0.data        13907                       # number of overall MSHR misses
system.l2.overall_mshr_misses::total            13910                       # number of overall MSHR misses
system.l2.ReadExReq_mshr_miss_latency::cpu0.data    768366000                       # number of ReadExReq MSHR miss cycles
system.l2.ReadExReq_mshr_miss_latency::total    768366000                       # number of ReadExReq MSHR miss cycles
system.l2.ReadCleanReq_mshr_miss_latency::cpu0.inst       225000                       # number of ReadCleanReq MSHR miss cycles
system.l2.ReadCleanReq_mshr_miss_latency::total       225000                       # number of ReadCleanReq MSHR miss cycles
system.l2.ReadSharedReq_mshr_miss_latency::cpu0.data    456866500                       # number of ReadSharedReq MSHR miss cycles
system.l2.ReadSharedReq_mshr_miss_latency::total    456866500                       # number of ReadSharedReq MSHR miss cycles
system.l2.demand_mshr_miss_latency::cpu0.inst       225000                       # number of demand (read+write) MSHR miss cycles
system.l2.demand_mshr_miss_latency::cpu0.data   1225232500                       # number of demand (read+write) MSHR miss cycles
system.l2.demand_mshr_miss_latency::total   1225457500                       # number of demand (read+write) MSHR miss cycles
system.l2.overall_mshr_miss_latency::cpu0.inst       225000                       # number of overall MSHR miss cycles
system.l2.overall_mshr_miss_latency::cpu0.data   1225232500                       # number of overall MSHR miss cycles
system.l2.overall_mshr_miss_latency::total   1225457500                       # number of overall MSHR miss cycles
system.l2.ReadExReq_mshr_miss_rate::cpu0.data     0.955139                       # mshr miss rate for ReadExReq accesses
system.l2.ReadExReq_mshr_miss_rate::total     0.955139                       # mshr miss rate for ReadExReq accesses
system.l2.ReadCleanReq_mshr_miss_rate::cpu0.inst     0.000713                       # mshr miss rate for ReadCleanReq accesses
system.l2.ReadCleanReq_mshr_miss_rate::total     0.000713                       # mshr miss rate for ReadCleanReq accesses
system.l2.ReadSharedReq_mshr_miss_rate::cpu0.data     0.429261                       # mshr miss rate for ReadSharedReq accesses
system.l2.ReadSharedReq_mshr_miss_rate::total     0.429261                       # mshr miss rate for ReadSharedReq accesses
system.l2.demand_mshr_miss_rate::cpu0.inst     0.000713                       # mshr miss rate for demand accesses
system.l2.demand_mshr_miss_rate::cpu0.data     0.678688                       # mshr miss rate for demand accesses
system.l2.demand_mshr_miss_rate::total       0.563249                       # mshr miss rate for demand accesses
system.l2.overall_mshr_miss_rate::cpu0.inst     0.000713                       # mshr miss rate for overall accesses
system.l2.overall_mshr_miss_rate::cpu0.data     0.678688                       # mshr miss rate for overall accesses
system.l2.overall_mshr_miss_rate::total      0.563249                       # mshr miss rate for overall accesses
system.l2.ReadExReq_avg_mshr_miss_latency::cpu0.data 82771.302381                       # average ReadExReq mshr miss latency
system.l2.ReadExReq_avg_mshr_miss_latency::total 82771.302381                       # average ReadExReq mshr miss latency
system.l2.ReadCleanReq_avg_mshr_miss_latency::cpu0.inst        75000                       # average ReadCleanReq mshr miss latency
system.l2.ReadCleanReq_avg_mshr_miss_latency::total        75000                       # average ReadCleanReq mshr miss latency
system.l2.ReadSharedReq_avg_mshr_miss_latency::cpu0.data 98803.308824                       # average ReadSharedReq mshr miss latency
system.l2.ReadSharedReq_avg_mshr_miss_latency::total 98803.308824                       # average ReadSharedReq mshr miss latency
system.l2.demand_avg_mshr_miss_latency::cpu0.inst        75000                       # average overall mshr miss latency
system.l2.demand_avg_mshr_miss_latency::cpu0.data 88101.855181                       # average overall mshr miss latency
system.l2.demand_avg_mshr_miss_latency::total 88099.029475                       # average overall mshr miss latency
system.l2.overall_avg_mshr_miss_latency::cpu0.inst        75000                       # average overall mshr miss latency
system.l2.overall_avg_mshr_miss_latency::cpu0.data 88101.855181                       # average overall mshr miss latency
system.l2.overall_avg_mshr_miss_latency::total 88099.029475                       # average overall mshr miss latency
system.membus.snoop_filter.tot_requests         27777                       # Total number of requests made to the snoop filter.
system.membus.snoop_filter.hit_single_requests        13867                       # Number of requests hitting in the snoop filter with a single holder of the requested data.
system.membus.snoop_filter.hit_multi_requests            0                       # Number of requests hitting in the snoop filter with multiple (>1) holders of the requested data.
system.membus.snoop_filter.tot_snoops               0                       # Total number of snoops made to the snoop filter.
system.membus.snoop_filter.hit_single_snoops            0                       # Number of snoops hitting in the snoop filter with a single holder of the requested data.
system.membus.snoop_filter.hit_multi_snoops            0                       # Number of snoops hitting in the snoop filter with multiple (>1) holders of the requested data.
system.membus.pwrStateResidencyTicks::UNDEFINED  15267344125                       # Cumulative time (in ticks) in various power states
system.membus.trans_dist::ReadResp               4627                       # Transaction distribution
system.membus.trans_dist::WritebackDirty        13355                       # Transaction distribution
system.membus.trans_dist::CleanEvict              512                       # Transaction distribution
system.membus.trans_dist::ReadExReq              9283                       # Transaction distribution
system.membus.trans_dist::ReadExResp             9283                       # Transaction distribution
system.membus.trans_dist::ReadSharedReq          4627                       # Transaction distribution
system.membus.pkt_count_system.l2.mem_side::system.mem_ctrls.port        41687                       # Packet count per connected master and slave (bytes)
system.membus.pkt_count_system.l2.mem_side::total        41687                       # Packet count per connected master and slave (bytes)
system.membus.pkt_count::total                  41687                       # Packet count per connected master and slave (bytes)
system.membus.pkt_size_system.l2.mem_side::system.mem_ctrls.port      1744960                       # Cumulative packet size per connected master and slave (bytes)
system.membus.pkt_size_system.l2.mem_side::total      1744960                       # Cumulative packet size per connected master and slave (bytes)
system.membus.pkt_size::total                 1744960                       # Cumulative packet size per connected master and slave (bytes)
system.membus.snoops                                0                       # Total snoops (count)
system.membus.snoopTraffic                          0                       # Total snoop traffic (bytes)
system.membus.snoop_fanout::samples             13910                       # Request fanout histogram
system.membus.snoop_fanout::mean                    0                       # Request fanout histogram
system.membus.snoop_fanout::stdev                   0                       # Request fanout histogram
system.membus.snoop_fanout::underflows              0      0.00%      0.00% # Request fanout histogram
system.membus.snoop_fanout::0                   13910    100.00%    100.00% # Request fanout histogram
system.membus.snoop_fanout::1                       0      0.00%    100.00% # Request fanout histogram
system.membus.snoop_fanout::overflows               0      0.00%    100.00% # Request fanout histogram
system.membus.snoop_fanout::min_value               0                       # Request fanout histogram
system.membus.snoop_fanout::max_value               0                       # Request fanout histogram
system.membus.snoop_fanout::total               13910                       # Request fanout histogram
system.membus.reqLayer12.occupancy           84566000                       # Layer occupancy (ticks)
system.membus.reqLayer12.utilization              0.6                       # Layer utilization (%)
system.membus.respLayer1.occupancy           75422000                       # Layer occupancy (ticks)
system.membus.respLayer1.utilization              0.5                       # Layer utilization (%)
system.tol2bus.snoop_filter.tot_requests        49467                       # Total number of requests made to the snoop filter.
system.tol2bus.snoop_filter.hit_single_requests        24712                       # Number of requests hitting in the snoop filter with a single holder of the requested data.
system.tol2bus.snoop_filter.hit_multi_requests           92                       # Number of requests hitting in the snoop filter with multiple (>1) holders of the requested data.
system.tol2bus.snoop_filter.tot_snoops             44                       # Total number of snoops made to the snoop filter.
system.tol2bus.snoop_filter.hit_single_snoops           44                       # Number of snoops hitting in the snoop filter with a single holder of the requested data.
system.tol2bus.snoop_filter.hit_multi_snoops            0                       # Number of snoops hitting in the snoop filter with multiple (>1) holders of the requested data.
system.tol2bus.pwrStateResidencyTicks::UNDEFINED  15267344125                       # Cumulative time (in ticks) in various power states
system.tol2bus.trans_dist::ReadResp             15011                       # Transaction distribution
system.tol2bus.trans_dist::WritebackDirty        31318                       # Transaction distribution
system.tol2bus.trans_dist::WritebackClean         4217                       # Transaction distribution
system.tol2bus.trans_dist::CleanEvict            3084                       # Transaction distribution
system.tol2bus.trans_dist::UpgradeReq              29                       # Transaction distribution
system.tol2bus.trans_dist::UpgradeResp             29                       # Transaction distribution
system.tol2bus.trans_dist::ReadExReq             9719                       # Transaction distribution
system.tol2bus.trans_dist::ReadExResp            9719                       # Transaction distribution
system.tol2bus.trans_dist::ReadCleanReq          4239                       # Transaction distribution
system.tol2bus.trans_dist::ReadSharedReq        10772                       # Transaction distribution
system.tol2bus.pkt_count_system.cpu0.icache.mem_side::system.l2.cpu_side        12661                       # Packet count per connected master and slave (bytes)
system.tol2bus.pkt_count_system.cpu0.dcache.mem_side::system.l2.cpu_side        61531                       # Packet count per connected master and slave (bytes)
system.tol2bus.pkt_count::total                 74192                       # Packet count per connected master and slave (bytes)
system.tol2bus.pkt_size_system.cpu0.icache.mem_side::system.l2.cpu_side       539008                       # Cumulative packet size per connected master and slave (bytes)
system.tol2bus.pkt_size_system.cpu0.dcache.mem_side::system.l2.cpu_side      2461056                       # Cumulative packet size per connected master and slave (bytes)
system.tol2bus.pkt_size::total                3000064                       # Cumulative packet size per connected master and slave (bytes)
system.tol2bus.snoops                           13945                       # Total snoops (count)
system.tol2bus.snoopTraffic                    856896                       # Total snoop traffic (bytes)
system.tol2bus.snoop_fanout::samples            38670                       # Request fanout histogram
system.tol2bus.snoop_fanout::mean            0.003439                       # Request fanout histogram
system.tol2bus.snoop_fanout::stdev           0.058546                       # Request fanout histogram
system.tol2bus.snoop_fanout::underflows             0      0.00%      0.00% # Request fanout histogram
system.tol2bus.snoop_fanout::0                  38537     99.66%     99.66% # Request fanout histogram
system.tol2bus.snoop_fanout::1                    133      0.34%    100.00% # Request fanout histogram
system.tol2bus.snoop_fanout::2                      0      0.00%    100.00% # Request fanout histogram
system.tol2bus.snoop_fanout::3                      0      0.00%    100.00% # Request fanout histogram
system.tol2bus.snoop_fanout::4                      0      0.00%    100.00% # Request fanout histogram
system.tol2bus.snoop_fanout::5                      0      0.00%    100.00% # Request fanout histogram
system.tol2bus.snoop_fanout::6                      0      0.00%    100.00% # Request fanout histogram
system.tol2bus.snoop_fanout::7                      0      0.00%    100.00% # Request fanout histogram
system.tol2bus.snoop_fanout::8                      0      0.00%    100.00% # Request fanout histogram
system.tol2bus.snoop_fanout::9                      0      0.00%    100.00% # Request fanout histogram
system.tol2bus.snoop_fanout::10                     0      0.00%    100.00% # Request fanout histogram
system.tol2bus.snoop_fanout::11                     0      0.00%    100.00% # Request fanout histogram
system.tol2bus.snoop_fanout::12                     0      0.00%    100.00% # Request fanout histogram
system.tol2bus.snoop_fanout::13                     0      0.00%    100.00% # Request fanout histogram
system.tol2bus.snoop_fanout::14                     0      0.00%    100.00% # Request fanout histogram
system.tol2bus.snoop_fanout::15                     0      0.00%    100.00% # Request fanout histogram
system.tol2bus.snoop_fanout::16                     0      0.00%    100.00% # Request fanout histogram
system.tol2bus.snoop_fanout::17                     0      0.00%    100.00% # Request fanout histogram
system.tol2bus.snoop_fanout::18                     0      0.00%    100.00% # Request fanout histogram
system.tol2bus.snoop_fanout::19                     0      0.00%    100.00% # Request fanout histogram
system.tol2bus.snoop_fanout::20                     0      0.00%    100.00% # Request fanout histogram
system.tol2bus.snoop_fanout::21                     0      0.00%    100.00% # Request fanout histogram
system.tol2bus.snoop_fanout::22                     0      0.00%    100.00% # Request fanout histogram
system.tol2bus.snoop_fanout::23                     0      0.00%    100.00% # Request fanout histogram
system.tol2bus.snoop_fanout::24                     0      0.00%    100.00% # Request fanout histogram
system.tol2bus.snoop_fanout::overflows              0      0.00%    100.00% # Request fanout histogram
system.tol2bus.snoop_fanout::min_value              0                       # Request fanout histogram
system.tol2bus.snoop_fanout::max_value              1                       # Request fanout histogram
system.tol2bus.snoop_fanout::total              38670                       # Request fanout histogram
system.tol2bus.reqLayer0.occupancy           46913500                       # Layer occupancy (ticks)
system.tol2bus.reqLayer0.utilization              0.3                       # Layer utilization (%)
system.tol2bus.respLayer0.occupancy           6358500                       # Layer occupancy (ticks)
system.tol2bus.respLayer0.utilization             0.0                       # Layer utilization (%)
system.tol2bus.respLayer1.occupancy          30751499                       # Layer occupancy (ticks)
system.tol2bus.respLayer1.utilization             0.2                       # Layer utilization (%)

---------- End Simulation Statistics   ----------
