
---------- Begin Simulation Statistics ----------
sim_seconds                                  0.015267                       # Number of seconds simulated
sim_ticks                                 15267344125                       # Number of ticks simulated
final_tick                               3190874922125                       # Number of ticks from beginning of simulation (restored from checkpoints and never reset)
sim_freq                                 1000000000000                       # Frequency of simulated ticks
host_inst_rate                               30117232                       # Simulator instruction rate (inst/s)
host_op_rate                                 55916516                       # Simulator op (including micro ops) rate (op/s)
host_tick_rate                               80340502                       # Simulator tick rate (ticks/s)
host_mem_usage                                3428828                       # Number of bytes of host memory used
host_seconds                                   190.03                       # Real time elapsed on the host
sim_insts                                  5723266458                       # Number of instructions simulated
sim_ops                                   10625980974                       # Number of ops (including micro ops) simulated
system.voltage_domain.voltage                       1                       # Voltage in Volts
system.clk_domain.clock                          1000                       # Clock period in ticks
system.mem_ctrls.pwrStateResidencyTicks::UNDEFINED  15267344125                       # Cumulative time (in ticks) in various power states
system.mem_ctrls.bytes_read::cpu0.data         192320                       # Number of bytes read from this memory
system.mem_ctrls.bytes_read::total             192320                       # Number of bytes read from this memory
system.mem_ctrls.bytes_written::writebacks        31424                       # Number of bytes written to this memory
system.mem_ctrls.bytes_written::total           31424                       # Number of bytes written to this memory
system.mem_ctrls.num_reads::cpu0.data            3005                       # Number of read requests responded to by this memory
system.mem_ctrls.num_reads::total                3005                       # Number of read requests responded to by this memory
system.mem_ctrls.num_writes::writebacks           491                       # Number of write requests responded to by this memory
system.mem_ctrls.num_writes::total                491                       # Number of write requests responded to by this memory
system.mem_ctrls.bw_read::cpu0.data          12596821                       # Total read bandwidth from this memory (bytes/s)
system.mem_ctrls.bw_read::total              12596821                       # Total read bandwidth from this memory (bytes/s)
system.mem_ctrls.bw_write::writebacks         2058249                       # Write bandwidth from this memory (bytes/s)
system.mem_ctrls.bw_write::total              2058249                       # Write bandwidth from this memory (bytes/s)
system.mem_ctrls.bw_total::writebacks         2058249                       # Total bandwidth to/from this memory (bytes/s)
system.mem_ctrls.bw_total::cpu0.data         12596821                       # Total bandwidth to/from this memory (bytes/s)
system.mem_ctrls.bw_total::total             14655070                       # Total bandwidth to/from this memory (bytes/s)
system.mem_ctrls.readReqs                        3005                       # Number of read requests accepted
system.mem_ctrls.writeReqs                        491                       # Number of write requests accepted
system.mem_ctrls.readBursts                      3005                       # Number of DRAM read bursts, including those serviced by the write queue
system.mem_ctrls.writeBursts                      491                       # Number of DRAM write bursts, including those merged in the write queue
system.mem_ctrls.bytesReadDRAM                 192256                       # Total number of bytes read from DRAM
system.mem_ctrls.bytesReadWrQ                      64                       # Total number of bytes read from write queue
system.mem_ctrls.bytesWritten                   31360                       # Total number of bytes written to DRAM
system.mem_ctrls.bytesReadSys                  192320                       # Total read bytes from the system interface side
system.mem_ctrls.bytesWrittenSys                31424                       # Total written bytes from the system interface side
system.mem_ctrls.servicedByWrQ                      1                       # Number of DRAM read bursts serviced by the write queue
system.mem_ctrls.mergedWrBursts                     0                       # Number of DRAM write bursts merged with an existing one
system.mem_ctrls.neitherReadNorWriteReqs            0                       # Number of requests that are neither read nor write
system.mem_ctrls.perBankRdBursts::0               265                       # Per bank write bursts
system.mem_ctrls.perBankRdBursts::1               298                       # Per bank write bursts
system.mem_ctrls.perBankRdBursts::2               242                       # Per bank write bursts
system.mem_ctrls.perBankRdBursts::3               242                       # Per bank write bursts
system.mem_ctrls.perBankRdBursts::4               244                       # Per bank write bursts
system.mem_ctrls.perBankRdBursts::5               261                       # Per bank write bursts
system.mem_ctrls.perBankRdBursts::6               289                       # Per bank write bursts
system.mem_ctrls.perBankRdBursts::7               269                       # Per bank write bursts
system.mem_ctrls.perBankRdBursts::8               181                       # Per bank write bursts
system.mem_ctrls.perBankRdBursts::9               113                       # Per bank write bursts
system.mem_ctrls.perBankRdBursts::10               61                       # Per bank write bursts
system.mem_ctrls.perBankRdBursts::11              121                       # Per bank write bursts
system.mem_ctrls.perBankRdBursts::12               12                       # Per bank write bursts
system.mem_ctrls.perBankRdBursts::13               73                       # Per bank write bursts
system.mem_ctrls.perBankRdBursts::14              149                       # Per bank write bursts
system.mem_ctrls.perBankRdBursts::15              184                       # Per bank write bursts
system.mem_ctrls.perBankWrBursts::0                 7                       # Per bank write bursts
system.mem_ctrls.perBankWrBursts::1                18                       # Per bank write bursts
system.mem_ctrls.perBankWrBursts::2                25                       # Per bank write bursts
system.mem_ctrls.perBankWrBursts::3                20                       # Per bank write bursts
system.mem_ctrls.perBankWrBursts::4                24                       # Per bank write bursts
system.mem_ctrls.perBankWrBursts::5                24                       # Per bank write bursts
system.mem_ctrls.perBankWrBursts::6                27                       # Per bank write bursts
system.mem_ctrls.perBankWrBursts::7               103                       # Per bank write bursts
system.mem_ctrls.perBankWrBursts::8                93                       # Per bank write bursts
system.mem_ctrls.perBankWrBursts::9               103                       # Per bank write bursts
system.mem_ctrls.perBankWrBursts::10               25                       # Per bank write bursts
system.mem_ctrls.perBankWrBursts::11                4                       # Per bank write bursts
system.mem_ctrls.perBankWrBursts::12                5                       # Per bank write bursts
system.mem_ctrls.perBankWrBursts::13                5                       # Per bank write bursts
system.mem_ctrls.perBankWrBursts::14                5                       # Per bank write bursts
system.mem_ctrls.perBankWrBursts::15                2                       # Per bank write bursts
system.mem_ctrls.numRdRetry                         0                       # Number of times read queue was full causing retry
system.mem_ctrls.numWrRetry                         0                       # Number of times write queue was full causing retry
system.mem_ctrls.totGap                   15259969000                       # Total gap between requests
system.mem_ctrls.readPktSize::0                     0                       # Read request sizes (log2)
system.mem_ctrls.readPktSize::1                     0                       # Read request sizes (log2)
system.mem_ctrls.readPktSize::2                     0                       # Read request sizes (log2)
system.mem_ctrls.readPktSize::3                     0                       # Read request sizes (log2)
system.mem_ctrls.readPktSize::4                     0                       # Read request sizes (log2)
system.mem_ctrls.readPktSize::5                     0                       # Read request sizes (log2)
system.mem_ctrls.readPktSize::6                  3005                       # Read request sizes (log2)
system.mem_ctrls.writePktSize::0                    0                       # Write request sizes (log2)
system.mem_ctrls.writePktSize::1                    0                       # Write request sizes (log2)
system.mem_ctrls.writePktSize::2                    0                       # Write request sizes (log2)
system.mem_ctrls.writePktSize::3                    0                       # Write request sizes (log2)
system.mem_ctrls.writePktSize::4                    0                       # Write request sizes (log2)
system.mem_ctrls.writePktSize::5                    0                       # Write request sizes (log2)
system.mem_ctrls.writePktSize::6                  491                       # Write request sizes (log2)
system.mem_ctrls.rdQLenPdf::0                    2758                       # What read queue length does an incoming req see
system.mem_ctrls.rdQLenPdf::1                     218                       # What read queue length does an incoming req see
system.mem_ctrls.rdQLenPdf::2                      28                       # What read queue length does an incoming req see
system.mem_ctrls.rdQLenPdf::3                       0                       # What read queue length does an incoming req see
system.mem_ctrls.rdQLenPdf::4                       0                       # What read queue length does an incoming req see
system.mem_ctrls.rdQLenPdf::5                       0                       # What read queue length does an incoming req see
system.mem_ctrls.rdQLenPdf::6                       0                       # What read queue length does an incoming req see
system.mem_ctrls.rdQLenPdf::7                       0                       # What read queue length does an incoming req see
system.mem_ctrls.rdQLenPdf::8                       0                       # What read queue length does an incoming req see
system.mem_ctrls.rdQLenPdf::9                       0                       # What read queue length does an incoming req see
system.mem_ctrls.rdQLenPdf::10                      0                       # What read queue length does an incoming req see
system.mem_ctrls.rdQLenPdf::11                      0                       # What read queue length does an incoming req see
system.mem_ctrls.rdQLenPdf::12                      0                       # What read queue length does an incoming req see
system.mem_ctrls.rdQLenPdf::13                      0                       # What read queue length does an incoming req see
system.mem_ctrls.rdQLenPdf::14                      0                       # What read queue length does an incoming req see
system.mem_ctrls.rdQLenPdf::15                      0                       # What read queue length does an incoming req see
system.mem_ctrls.rdQLenPdf::16                      0                       # What read queue length does an incoming req see
system.mem_ctrls.rdQLenPdf::17                      0                       # What read queue length does an incoming req see
system.mem_ctrls.rdQLenPdf::18                      0                       # What read queue length does an incoming req see
system.mem_ctrls.rdQLenPdf::19                      0                       # What read queue length does an incoming req see
system.mem_ctrls.rdQLenPdf::20                      0                       # What read queue length does an incoming req see
system.mem_ctrls.rdQLenPdf::21                      0                       # What read queue length does an incoming req see
system.mem_ctrls.rdQLenPdf::22                      0                       # What read queue length does an incoming req see
system.mem_ctrls.rdQLenPdf::23                      0                       # What read queue length does an incoming req see
system.mem_ctrls.rdQLenPdf::24                      0                       # What read queue length does an incoming req see
system.mem_ctrls.rdQLenPdf::25                      0                       # What read queue length does an incoming req see
system.mem_ctrls.rdQLenPdf::26                      0                       # What read queue length does an incoming req see
system.mem_ctrls.rdQLenPdf::27                      0                       # What read queue length does an incoming req see
system.mem_ctrls.rdQLenPdf::28                      0                       # What read queue length does an incoming req see
system.mem_ctrls.rdQLenPdf::29                      0                       # What read queue length does an incoming req see
system.mem_ctrls.rdQLenPdf::30                      0                       # What read queue length does an incoming req see
system.mem_ctrls.rdQLenPdf::31                      0                       # What read queue length does an incoming req see
system.mem_ctrls.wrQLenPdf::0                       0                       # What write queue length does an incoming req see
system.mem_ctrls.wrQLenPdf::1                       0                       # What write queue length does an incoming req see
system.mem_ctrls.wrQLenPdf::2                       0                       # What write queue length does an incoming req see
system.mem_ctrls.wrQLenPdf::3                       0                       # What write queue length does an incoming req see
system.mem_ctrls.wrQLenPdf::4                       0                       # What write queue length does an incoming req see
system.mem_ctrls.wrQLenPdf::5                       0                       # What write queue length does an incoming req see
system.mem_ctrls.wrQLenPdf::6                       0                       # What write queue length does an incoming req see
system.mem_ctrls.wrQLenPdf::7                       0                       # What write queue length does an incoming req see
system.mem_ctrls.wrQLenPdf::8                       0                       # What write queue length does an incoming req see
system.mem_ctrls.wrQLenPdf::9                       0                       # What write queue length does an incoming req see
system.mem_ctrls.wrQLenPdf::10                      0                       # What write queue length does an incoming req see
system.mem_ctrls.wrQLenPdf::11                      0                       # What write queue length does an incoming req see
system.mem_ctrls.wrQLenPdf::12                      0                       # What write queue length does an incoming req see
system.mem_ctrls.wrQLenPdf::13                      0                       # What write queue length does an incoming req see
system.mem_ctrls.wrQLenPdf::14                      0                       # What write queue length does an incoming req see
system.mem_ctrls.wrQLenPdf::15                     12                       # What write queue length does an incoming req see
system.mem_ctrls.wrQLenPdf::16                     13                       # What write queue length does an incoming req see
system.mem_ctrls.wrQLenPdf::17                     29                       # What write queue length does an incoming req see
system.mem_ctrls.wrQLenPdf::18                     29                       # What write queue length does an incoming req see
system.mem_ctrls.wrQLenPdf::19                     29                       # What write queue length does an incoming req see
system.mem_ctrls.wrQLenPdf::20                     29                       # What write queue length does an incoming req see
system.mem_ctrls.wrQLenPdf::21                     29                       # What write queue length does an incoming req see
system.mem_ctrls.wrQLenPdf::22                     29                       # What write queue length does an incoming req see
system.mem_ctrls.wrQLenPdf::23                     29                       # What write queue length does an incoming req see
system.mem_ctrls.wrQLenPdf::24                     29                       # What write queue length does an incoming req see
system.mem_ctrls.wrQLenPdf::25                     29                       # What write queue length does an incoming req see
system.mem_ctrls.wrQLenPdf::26                     29                       # What write queue length does an incoming req see
system.mem_ctrls.wrQLenPdf::27                     29                       # What write queue length does an incoming req see
system.mem_ctrls.wrQLenPdf::28                     29                       # What write queue length does an incoming req see
system.mem_ctrls.wrQLenPdf::29                     30                       # What write queue length does an incoming req see
system.mem_ctrls.wrQLenPdf::30                     29                       # What write queue length does an incoming req see
system.mem_ctrls.wrQLenPdf::31                     29                       # What write queue length does an incoming req see
system.mem_ctrls.wrQLenPdf::32                     29                       # What write queue length does an incoming req see
system.mem_ctrls.wrQLenPdf::33                      1                       # What write queue length does an incoming req see
system.mem_ctrls.wrQLenPdf::34                      0                       # What write queue length does an incoming req see
system.mem_ctrls.wrQLenPdf::35                      0                       # What write queue length does an incoming req see
system.mem_ctrls.wrQLenPdf::36                      0                       # What write queue length does an incoming req see
system.mem_ctrls.wrQLenPdf::37                      0                       # What write queue length does an incoming req see
system.mem_ctrls.wrQLenPdf::38                      0                       # What write queue length does an incoming req see
system.mem_ctrls.wrQLenPdf::39                      0                       # What write queue length does an incoming req see
system.mem_ctrls.wrQLenPdf::40                      0                       # What write queue length does an incoming req see
system.mem_ctrls.wrQLenPdf::41                      0                       # What write queue length does an incoming req see
system.mem_ctrls.wrQLenPdf::42                      0                       # What write queue length does an incoming req see
system.mem_ctrls.wrQLenPdf::43                      0                       # What write queue length does an incoming req see
system.mem_ctrls.wrQLenPdf::44                      0                       # What write queue length does an incoming req see
system.mem_ctrls.wrQLenPdf::45                      0                       # What write queue length does an incoming req see
system.mem_ctrls.wrQLenPdf::46                      0                       # What write queue length does an incoming req see
system.mem_ctrls.wrQLenPdf::47                      0                       # What write queue length does an incoming req see
system.mem_ctrls.wrQLenPdf::48                      0                       # What write queue length does an incoming req see
system.mem_ctrls.wrQLenPdf::49                      0                       # What write queue length does an incoming req see
system.mem_ctrls.wrQLenPdf::50                      0                       # What write queue length does an incoming req see
system.mem_ctrls.wrQLenPdf::51                      0                       # What write queue length does an incoming req see
system.mem_ctrls.wrQLenPdf::52                      0                       # What write queue length does an incoming req see
system.mem_ctrls.wrQLenPdf::53                      0                       # What write queue length does an incoming req see
system.mem_ctrls.wrQLenPdf::54                      0                       # What write queue length does an incoming req see
system.mem_ctrls.wrQLenPdf::55                      0                       # What write queue length does an incoming req see
system.mem_ctrls.wrQLenPdf::56                      0                       # What write queue length does an incoming req see
system.mem_ctrls.wrQLenPdf::57                      0                       # What write queue length does an incoming req see
system.mem_ctrls.wrQLenPdf::58                      0                       # What write queue length does an incoming req see
system.mem_ctrls.wrQLenPdf::59                      0                       # What write queue length does an incoming req see
system.mem_ctrls.wrQLenPdf::60                      0                       # What write queue length does an incoming req see
system.mem_ctrls.wrQLenPdf::61                      0                       # What write queue length does an incoming req see
system.mem_ctrls.wrQLenPdf::62                      0                       # What write queue length does an incoming req see
system.mem_ctrls.wrQLenPdf::63                      0                       # What write queue length does an incoming req see
system.mem_ctrls.bytesPerActivate::samples         2635                       # Bytes accessed per row activation
system.mem_ctrls.bytesPerActivate::mean     84.912334                       # Bytes accessed per row activation
system.mem_ctrls.bytesPerActivate::gmean    74.851866                       # Bytes accessed per row activation
system.mem_ctrls.bytesPerActivate::stdev    84.775676                       # Bytes accessed per row activation
system.mem_ctrls.bytesPerActivate::0-127         2150     81.59%     81.59% # Bytes accessed per row activation
system.mem_ctrls.bytesPerActivate::128-255          441     16.74%     98.33% # Bytes accessed per row activation
system.mem_ctrls.bytesPerActivate::256-383           12      0.46%     98.79% # Bytes accessed per row activation
system.mem_ctrls.bytesPerActivate::384-511            4      0.15%     98.94% # Bytes accessed per row activation
system.mem_ctrls.bytesPerActivate::512-639            6      0.23%     99.17% # Bytes accessed per row activation
system.mem_ctrls.bytesPerActivate::640-767            5      0.19%     99.35% # Bytes accessed per row activation
system.mem_ctrls.bytesPerActivate::768-895            3      0.11%     99.47% # Bytes accessed per row activation
system.mem_ctrls.bytesPerActivate::896-1023            4      0.15%     99.62% # Bytes accessed per row activation
system.mem_ctrls.bytesPerActivate::1024-1151           10      0.38%    100.00% # Bytes accessed per row activation
system.mem_ctrls.bytesPerActivate::total         2635                       # Bytes accessed per row activation
system.mem_ctrls.rdPerTurnAround::samples           29                       # Reads before turning the bus around for writes
system.mem_ctrls.rdPerTurnAround::mean     110.862069                       # Reads before turning the bus around for writes
system.mem_ctrls.rdPerTurnAround::gmean     94.924370                       # Reads before turning the bus around for writes
system.mem_ctrls.rdPerTurnAround::stdev     59.254128                       # Reads before turning the bus around for writes
system.mem_ctrls.rdPerTurnAround::32-47             9     31.03%     31.03% # Reads before turning the bus around for writes
system.mem_ctrls.rdPerTurnAround::48-63             1      3.45%     34.48% # Reads before turning the bus around for writes
system.mem_ctrls.rdPerTurnAround::96-111            1      3.45%     37.93% # Reads before turning the bus around for writes
system.mem_ctrls.rdPerTurnAround::112-127            4     13.79%     51.72% # Reads before turning the bus around for writes
system.mem_ctrls.rdPerTurnAround::128-143            7     24.14%     75.86% # Reads before turning the bus around for writes
system.mem_ctrls.rdPerTurnAround::144-159            3     10.34%     86.21% # Reads before turning the bus around for writes
system.mem_ctrls.rdPerTurnAround::160-175            2      6.90%     93.10% # Reads before turning the bus around for writes
system.mem_ctrls.rdPerTurnAround::176-191            1      3.45%     96.55% # Reads before turning the bus around for writes
system.mem_ctrls.rdPerTurnAround::288-303            1      3.45%    100.00% # Reads before turning the bus around for writes
system.mem_ctrls.rdPerTurnAround::total            29                       # Reads before turning the bus around for writes
system.mem_ctrls.wrPerTurnAround::samples           29                       # Writes before turning the bus around for reads
system.mem_ctrls.wrPerTurnAround::mean      16.896552                       # Writes before turning the bus around for reads
system.mem_ctrls.wrPerTurnAround::gmean     16.865691                       # Writes before turning the bus around for reads
system.mem_ctrls.wrPerTurnAround::stdev      1.046928                       # Writes before turning the bus around for reads
system.mem_ctrls.wrPerTurnAround::16               16     55.17%     55.17% # Writes before turning the bus around for reads
system.mem_ctrls.wrPerTurnAround::17                1      3.45%     58.62% # Writes before turning the bus around for reads
system.mem_ctrls.wrPerTurnAround::18               11     37.93%     96.55% # Writes before turning the bus around for reads
system.mem_ctrls.wrPerTurnAround::19                1      3.45%    100.00% # Writes before turning the bus around for reads
system.mem_ctrls.wrPerTurnAround::total            29                       # Writes before turning the bus around for reads
system.mem_ctrls.totQLat                    537493000                       # Total ticks spent queuing
system.mem_ctrls.totMemAccLat               593818000                       # Total ticks spent from burst creation until serviced by the DRAM
system.mem_ctrls.totBusLat                   15020000                       # Total ticks spent in databus transfers
system.mem_ctrls.avgQLat                    178925.77                       # Average queueing delay per DRAM burst
system.mem_ctrls.avgBusLat                    5000.00                       # Average bus latency per DRAM burst
system.mem_ctrls.avgMemAccLat               197675.77                       # Average memory access latency per DRAM burst
system.mem_ctrls.avgRdBW                        12.59                       # Average DRAM read bandwidth in MiByte/s
system.mem_ctrls.avgWrBW                         2.05                       # Average achieved write bandwidth in MiByte/s
system.mem_ctrls.avgRdBWSys                     12.60                       # Average system read bandwidth in MiByte/s
system.mem_ctrls.avgWrBWSys                      2.06                       # Average system write bandwidth in MiByte/s
system.mem_ctrls.peakBW                      12800.00                       # Theoretical peak bandwidth in MiByte/s
system.mem_ctrls.busUtil                         0.11                       # Data bus utilization in percentage
system.mem_ctrls.busUtilRead                     0.10                       # Data bus utilization in percentage for reads
system.mem_ctrls.busUtilWrite                    0.02                       # Data bus utilization in percentage for writes
system.mem_ctrls.avgRdQLen                       1.12                       # Average read queue length when enqueuing
system.mem_ctrls.avgWrQLen                      24.93                       # Average write queue length when enqueuing
system.mem_ctrls.readRowHits                      447                       # Number of row buffer hits during reads
system.mem_ctrls.writeRowHits                     413                       # Number of row buffer hits during writes
system.mem_ctrls.readRowHitRate                 14.88                       # Row buffer hit rate for reads
system.mem_ctrls.writeRowHitRate                84.11                       # Row buffer hit rate for writes
system.mem_ctrls.avgGap                    4364979.69                       # Average gap between requests
system.mem_ctrls.pageHitRate                    24.61                       # Row buffer hit rate, read and write combined
system.mem_ctrls_0.actEnergy                 13030500                       # Energy for activate commands per rank (pJ)
system.mem_ctrls_0.preEnergy                  6929670                       # Energy for precharge commands per rank (pJ)
system.mem_ctrls_0.readEnergy                15065400                       # Energy for read commands per rank (pJ)
system.mem_ctrls_0.writeEnergy                1294560                       # Energy for write commands per rank (pJ)
system.mem_ctrls_0.refreshEnergy         1285826880.000000                       # Energy for refresh commands per rank (pJ)
system.mem_ctrls_0.actBackEnergy            284951550                       # Energy for active background per rank (pJ)
system.mem_ctrls_0.preBackEnergy             69847200                       # Energy for precharge background per rank (pJ)
system.mem_ctrls_0.actPowerDownEnergy      2226007890                       # Energy for active power-down per rank (pJ)
system.mem_ctrls_0.prePowerDownEnergy      2701235040                       # Energy for precharge power-down per rank (pJ)
system.mem_ctrls_0.selfRefreshEnergy        882380580                       # Energy for self refresh per rank (pJ)
system.mem_ctrls_0.totalEnergy             7487168610                       # Total energy per rank (pJ)
system.mem_ctrls_0.averagePower            490.404130                       # Core power per rank (mW)
system.mem_ctrls_0.totalIdleTime          14455665250                       # Total Idle time Per DRAM Rank
system.mem_ctrls_0.memoryStateTime::IDLE    136146000                       # Time in different power states
system.mem_ctrls_0.memoryStateTime::REF     546980000                       # Time in different power states
system.mem_ctrls_0.memoryStateTime::SREF   2543159375                       # Time in different power states
system.mem_ctrls_0.memoryStateTime::PRE_PDN   7034453250                       # Time in different power states
system.mem_ctrls_0.memoryStateTime::ACT     125015000                       # Time in different power states
system.mem_ctrls_0.memoryStateTime::ACT_PDN   4881590500                       # Time in different power states
system.mem_ctrls_1.actEnergy                  5776260                       # Energy for activate commands per rank (pJ)
system.mem_ctrls_1.preEnergy                  3070155                       # Energy for precharge commands per rank (pJ)
system.mem_ctrls_1.readEnergy                 6383160                       # Energy for read commands per rank (pJ)
system.mem_ctrls_1.writeEnergy                1263240                       # Energy for write commands per rank (pJ)
system.mem_ctrls_1.refreshEnergy         874632720.000000                       # Energy for refresh commands per rank (pJ)
system.mem_ctrls_1.actBackEnergy            207894390                       # Energy for active background per rank (pJ)
system.mem_ctrls_1.preBackEnergy             51412320                       # Energy for precharge background per rank (pJ)
system.mem_ctrls_1.actPowerDownEnergy      1471395150                       # Energy for active power-down per rank (pJ)
system.mem_ctrls_1.prePowerDownEnergy      1737386400                       # Energy for precharge power-down per rank (pJ)
system.mem_ctrls_1.selfRefreshEnergy       1871073420                       # Energy for self refresh per rank (pJ)
system.mem_ctrls_1.totalEnergy             6230675565                       # Total energy per rank (pJ)
system.mem_ctrls_1.averagePower            408.104744                       # Core power per rank (mW)
system.mem_ctrls_1.totalIdleTime          14673942000                       # Total Idle time Per DRAM Rank
system.mem_ctrls_1.memoryStateTime::IDLE    103494000                       # Time in different power states
system.mem_ctrls_1.memoryStateTime::REF     372326000                       # Time in different power states
system.mem_ctrls_1.memoryStateTime::SREF   6925499125                       # Time in different power states
system.mem_ctrls_1.memoryStateTime::PRE_PDN   4524434250                       # Time in different power states
system.mem_ctrls_1.memoryStateTime::ACT     114849250                       # Time in different power states
system.mem_ctrls_1.memoryStateTime::ACT_PDN   3226741500                       # Time in different power states
system.pwrStateResidencyTicks::UNDEFINED  15267344125                       # Cumulative time (in ticks) in various power states
system.cpu0.branchPred.lookups                6943670                       # Number of BP lookups
system.cpu0.branchPred.condPredicted          6943670                       # Number of conditional branches predicted
system.cpu0.branchPred.condIncorrect           305621                       # Number of conditional branches incorrect
system.cpu0.branchPred.BTBLookups             5334258                       # Number of BTB lookups
system.cpu0.branchPred.BTBHits                      0                       # Number of BTB hits
system.cpu0.branchPred.BTBCorrect                   0                       # Number of correct BTB predictions (this stat may not work properly.
system.cpu0.branchPred.BTBHitPct             0.000000                       # BTB Hit Percentage
system.cpu0.branchPred.usedRAS                 210599                       # Number of times the RAS was used to get a target.
system.cpu0.branchPred.RASInCorrect             29476                       # Number of incorrect RAS predictions.
system.cpu0.branchPred.indirectLookups        5334258                       # Number of indirect predictor lookups.
system.cpu0.branchPred.indirectHits           2921655                       # Number of indirect target hits.
system.cpu0.branchPred.indirectMisses         2412603                       # Number of indirect misses.
system.cpu0.branchPredindirectMispredicted       105013                       # Number of mispredicted indirect branches.
system.cpu_voltage_domain.voltage                   1                       # Voltage in Volts
system.cpu_clk_domain.clock                       500                       # Clock period in ticks
system.cpu0.dtb.walker.pwrStateResidencyTicks::UNDEFINED  15267344125                       # Cumulative time (in ticks) in various power states
system.cpu0.dtb.rdAccesses                    3442669                       # TLB accesses on read requests
system.cpu0.dtb.wrAccesses                     251103                       # TLB accesses on write requests
system.cpu0.dtb.rdMisses                       728049                       # TLB misses on read requests
system.cpu0.dtb.wrMisses                         4522                       # TLB misses on write requests
system.cpu0.apic_clk_domain.clock                8000                       # Clock period in ticks
system.cpu0.interrupts.pwrStateResidencyTicks::UNDEFINED  15267344125                       # Cumulative time (in ticks) in various power states
system.cpu0.itb.walker.pwrStateResidencyTicks::UNDEFINED  15267344125                       # Cumulative time (in ticks) in various power states
system.cpu0.itb.rdAccesses                          0                       # TLB accesses on read requests
system.cpu0.itb.wrAccesses                    5795158                       # TLB accesses on write requests
system.cpu0.itb.rdMisses                            0                       # TLB misses on read requests
system.cpu0.itb.wrMisses                        21757                       # TLB misses on write requests
system.cpu0.workload.numSyscalls                    0                       # Number of system calls
system.cpu0.pwrStateResidencyTicks::ON    15267344125                       # Cumulative time (in ticks) in various power states
system.cpu0.numCycles                        30534688                       # number of cpu cycles simulated
system.cpu0.numWorkItemsStarted                     0                       # number of work items this cpu started
system.cpu0.numWorkItemsCompleted                   0                       # number of work items this cpu completed
system.cpu0.fetch.icacheStallCycles           5928766                       # Number of cycles fetch is stalled on an Icache miss
system.cpu0.fetch.Insts                      20286547                       # Number of instructions fetch has processed
system.cpu0.fetch.Branches                    6943670                       # Number of branches that fetch encountered
system.cpu0.fetch.predictedBranches           3132254                       # Number of branches that fetch has predicted taken
system.cpu0.fetch.Cycles                     24125457                       # Number of cycles fetch has run and was not squashing or blocked
system.cpu0.fetch.SquashCycles                 625356                       # Number of cycles fetch has spent squashing
system.cpu0.fetch.TlbCycles                      1043                       # Number of cycles fetch has spent waiting for tlb
system.cpu0.fetch.MiscStallCycles                4776                       # Number of cycles fetch has spent waiting on interrupts, or bad addresses, or out of MSHRs
system.cpu0.fetch.PendingTrapStallCycles       159490                       # Number of stall cycles due to pending traps
system.cpu0.fetch.CacheLines                  5773401                       # Number of cache lines fetched
system.cpu0.fetch.IcacheSquashes                51943                       # Number of outstanding Icache misses that were squashed
system.cpu0.fetch.ItlbSquashes                     24                       # Number of outstanding ITLB misses that were squashed
system.cpu0.fetch.rateDist::samples          30532210                       # Number of instructions fetched each cycle (Total)
system.cpu0.fetch.rateDist::mean             1.337359                       # Number of instructions fetched each cycle (Total)
system.cpu0.fetch.rateDist::stdev            2.674423                       # Number of instructions fetched each cycle (Total)
system.cpu0.fetch.rateDist::underflows              0      0.00%      0.00% # Number of instructions fetched each cycle (Total)
system.cpu0.fetch.rateDist::0                22701845     74.35%     74.35% # Number of instructions fetched each cycle (Total)
system.cpu0.fetch.rateDist::1                   81921      0.27%     74.62% # Number of instructions fetched each cycle (Total)
system.cpu0.fetch.rateDist::2                 2813679      9.22%     83.84% # Number of instructions fetched each cycle (Total)
system.cpu0.fetch.rateDist::3                  118391      0.39%     84.23% # Number of instructions fetched each cycle (Total)
system.cpu0.fetch.rateDist::4                  538585      1.76%     85.99% # Number of instructions fetched each cycle (Total)
system.cpu0.fetch.rateDist::5                  269737      0.88%     86.87% # Number of instructions fetched each cycle (Total)
system.cpu0.fetch.rateDist::6                  351483      1.15%     88.02% # Number of instructions fetched each cycle (Total)
system.cpu0.fetch.rateDist::7                   96415      0.32%     88.34% # Number of instructions fetched each cycle (Total)
system.cpu0.fetch.rateDist::8                 3560154     11.66%    100.00% # Number of instructions fetched each cycle (Total)
system.cpu0.fetch.rateDist::overflows               0      0.00%    100.00% # Number of instructions fetched each cycle (Total)
system.cpu0.fetch.rateDist::min_value               0                       # Number of instructions fetched each cycle (Total)
system.cpu0.fetch.rateDist::max_value               8                       # Number of instructions fetched each cycle (Total)
system.cpu0.fetch.rateDist::total            30532210                       # Number of instructions fetched each cycle (Total)
system.cpu0.fetch.branchRate                 0.227403                       # Number of branch fetches per cycle
system.cpu0.fetch.rate                       0.664377                       # Number of inst fetches per cycle
system.cpu0.decode.IdleCycles                 3155089                       # Number of cycles decode is idle
system.cpu0.decode.BlockedCycles             21668413                       # Number of cycles decode is blocked
system.cpu0.decode.RunCycles                  4129786                       # Number of cycles decode is running
system.cpu0.decode.UnblockCycles              1266244                       # Number of cycles decode is unblocking
system.cpu0.decode.SquashCycles                312678                       # Number of cycles decode is squashing
system.cpu0.decode.DecodedInsts              34821346                       # Number of instructions handled by decode
system.cpu0.rename.SquashCycles                312678                       # Number of cycles rename is squashing
system.cpu0.rename.IdleCycles                 3651048                       # Number of cycles rename is idle
system.cpu0.rename.BlockCycles               17360635                       # Number of cycles rename is blocking
system.cpu0.rename.serializeStallCycles        120040                       # count of cycles rename stalled for serializing inst
system.cpu0.rename.RunCycles                  4656311                       # Number of cycles rename is running
system.cpu0.rename.UnblockCycles              4431498                       # Number of cycles rename is unblocking
system.cpu0.rename.RenamedInsts              33411827                       # Number of instructions processed by rename
system.cpu0.rename.ROBFullEvents                77461                       # Number of times rename has blocked due to ROB full
system.cpu0.rename.IQFullEvents               3916017                       # Number of times rename has blocked due to IQ full
system.cpu0.rename.LQFullEvents                 87080                       # Number of times rename has blocked due to LQ full
system.cpu0.rename.SQFullEvents                194821                       # Number of times rename has blocked due to SQ full
system.cpu0.rename.FullRegisterEvents               4                       # Number of times there has been no free registers
system.cpu0.rename.RenamedOperands           39791612                       # Number of destination operands rename has renamed
system.cpu0.rename.RenameLookups             92860407                       # Number of register rename lookups that rename has made
system.cpu0.rename.int_rename_lookups        43983756                       # Number of integer rename lookups
system.cpu0.rename.fp_rename_lookups           194898                       # Number of floating rename lookups
system.cpu0.rename.CommittedMaps             14898781                       # Number of HB maps that are committed
system.cpu0.rename.UndoneMaps                24892829                       # Number of HB maps that are undone due to squashing
system.cpu0.rename.serializingInsts              2018                       # count of serializing insts renamed
system.cpu0.rename.tempSerializingInsts          2300                       # count of temporary serializing insts renamed
system.cpu0.rename.skidInsts                  7860501                       # count of insts added to the skid buffer
system.cpu0.memDep0.insertedLoads             5939404                       # Number of loads inserted to the mem dependence unit.
system.cpu0.memDep0.insertedStores             369539                       # Number of stores inserted to the mem dependence unit.
system.cpu0.memDep0.conflictingLoads            24180                       # Number of conflicting loads.
system.cpu0.memDep0.conflictingStores           23807                       # Number of conflicting stores.
system.cpu0.iq.iqInstsAdded                  31558155                       # Number of instructions added to the IQ (excludes non-spec)
system.cpu0.iq.iqNonSpecInstsAdded              22310                       # Number of non-speculative instructions added to the IQ
system.cpu0.iq.iqInstsIssued                 22904417                       # Number of instructions issued
system.cpu0.iq.iqSquashedInstsIssued            37453                       # Number of squashed instructions issued
system.cpu0.iq.iqSquashedInstsExamined       19163440                       # Number of squashed instructions iterated over during squash; mainly for profiling
system.cpu0.iq.iqSquashedOperandsExamined     40069508                       # Number of squashed operands that are examined and possibly removed from graph
system.cpu0.iq.iqSquashedNonSpecRemoved         22310                       # Number of squashed non-spec instructions that were removed
system.cpu0.iq.issued_per_cycle::samples     30532210                       # Number of insts issued each cycle
system.cpu0.iq.issued_per_cycle::mean        0.750172                       # Number of insts issued each cycle
system.cpu0.iq.issued_per_cycle::stdev       1.479203                       # Number of insts issued each cycle
system.cpu0.iq.issued_per_cycle::underflows            0      0.00%      0.00% # Number of insts issued each cycle
system.cpu0.iq.issued_per_cycle::0           21696308     71.06%     71.06% # Number of insts issued each cycle
system.cpu0.iq.issued_per_cycle::1            3142686     10.29%     81.35% # Number of insts issued each cycle
system.cpu0.iq.issued_per_cycle::2            1879912      6.16%     87.51% # Number of insts issued each cycle
system.cpu0.iq.issued_per_cycle::3            1349058      4.42%     91.93% # Number of insts issued each cycle
system.cpu0.iq.issued_per_cycle::4            1347002      4.41%     96.34% # Number of insts issued each cycle
system.cpu0.iq.issued_per_cycle::5             492147      1.61%     97.95% # Number of insts issued each cycle
system.cpu0.iq.issued_per_cycle::6             372007      1.22%     99.17% # Number of insts issued each cycle
system.cpu0.iq.issued_per_cycle::7             150772      0.49%     99.66% # Number of insts issued each cycle
system.cpu0.iq.issued_per_cycle::8             102318      0.34%    100.00% # Number of insts issued each cycle
system.cpu0.iq.issued_per_cycle::overflows            0      0.00%    100.00% # Number of insts issued each cycle
system.cpu0.iq.issued_per_cycle::min_value            0                       # Number of insts issued each cycle
system.cpu0.iq.issued_per_cycle::max_value            8                       # Number of insts issued each cycle
system.cpu0.iq.issued_per_cycle::total       30532210                       # Number of insts issued each cycle
system.cpu0.iq.fu_full::No_OpClass                  0      0.00%      0.00% # attempts to use FU when none available
system.cpu0.iq.fu_full::IntAlu                  63215     72.97%     72.97% # attempts to use FU when none available
system.cpu0.iq.fu_full::IntMult                     0      0.00%     72.97% # attempts to use FU when none available
system.cpu0.iq.fu_full::IntDiv                      0      0.00%     72.97% # attempts to use FU when none available
system.cpu0.iq.fu_full::FloatAdd                 5805      6.70%     79.67% # attempts to use FU when none available
system.cpu0.iq.fu_full::FloatCmp                    0      0.00%     79.67% # attempts to use FU when none available
system.cpu0.iq.fu_full::FloatCvt                    0      0.00%     79.67% # attempts to use FU when none available
system.cpu0.iq.fu_full::FloatMult                   0      0.00%     79.67% # attempts to use FU when none available
system.cpu0.iq.fu_full::FloatMultAcc                0      0.00%     79.67% # attempts to use FU when none available
system.cpu0.iq.fu_full::FloatDiv                    0      0.00%     79.67% # attempts to use FU when none available
system.cpu0.iq.fu_full::FloatMisc                   0      0.00%     79.67% # attempts to use FU when none available
system.cpu0.iq.fu_full::FloatSqrt                   0      0.00%     79.67% # attempts to use FU when none available
system.cpu0.iq.fu_full::SimdAdd                     0      0.00%     79.67% # attempts to use FU when none available
system.cpu0.iq.fu_full::SimdAddAcc                  0      0.00%     79.67% # attempts to use FU when none available
system.cpu0.iq.fu_full::SimdAlu                     0      0.00%     79.67% # attempts to use FU when none available
system.cpu0.iq.fu_full::SimdCmp                     0      0.00%     79.67% # attempts to use FU when none available
system.cpu0.iq.fu_full::SimdCvt                     0      0.00%     79.67% # attempts to use FU when none available
system.cpu0.iq.fu_full::SimdMisc                    0      0.00%     79.67% # attempts to use FU when none available
system.cpu0.iq.fu_full::SimdMult                    0      0.00%     79.67% # attempts to use FU when none available
system.cpu0.iq.fu_full::SimdMultAcc                 0      0.00%     79.67% # attempts to use FU when none available
system.cpu0.iq.fu_full::SimdShift                   0      0.00%     79.67% # attempts to use FU when none available
system.cpu0.iq.fu_full::SimdShiftAcc                0      0.00%     79.67% # attempts to use FU when none available
system.cpu0.iq.fu_full::SimdSqrt                    0      0.00%     79.67% # attempts to use FU when none available
system.cpu0.iq.fu_full::SimdFloatAdd                0      0.00%     79.67% # attempts to use FU when none available
system.cpu0.iq.fu_full::SimdFloatAlu                0      0.00%     79.67% # attempts to use FU when none available
system.cpu0.iq.fu_full::SimdFloatCmp                0      0.00%     79.67% # attempts to use FU when none available
system.cpu0.iq.fu_full::SimdFloatCvt                0      0.00%     79.67% # attempts to use FU when none available
system.cpu0.iq.fu_full::SimdFloatDiv                0      0.00%     79.67% # attempts to use FU when none available
system.cpu0.iq.fu_full::SimdFloatMisc               0      0.00%     79.67% # attempts to use FU when none available
system.cpu0.iq.fu_full::SimdFloatMult               0      0.00%     79.67% # attempts to use FU when none available
system.cpu0.iq.fu_full::SimdFloatMultAcc            0      0.00%     79.67% # attempts to use FU when none available
system.cpu0.iq.fu_full::SimdFloatSqrt               0      0.00%     79.67% # attempts to use FU when none available
system.cpu0.iq.fu_full::MemRead                 15347     17.71%     97.38% # attempts to use FU when none available
system.cpu0.iq.fu_full::MemWrite                 1531      1.77%     99.15% # attempts to use FU when none available
system.cpu0.iq.fu_full::FloatMemRead              552      0.64%     99.79% # attempts to use FU when none available
system.cpu0.iq.fu_full::FloatMemWrite             186      0.21%    100.00% # attempts to use FU when none available
system.cpu0.iq.fu_full::IprAccess                   0      0.00%    100.00% # attempts to use FU when none available
system.cpu0.iq.fu_full::InstPrefetch                0      0.00%    100.00% # attempts to use FU when none available
system.cpu0.iq.FU_type_0::No_OpClass            83409      0.36%      0.36% # Type of FU issued
system.cpu0.iq.FU_type_0::IntAlu             18765618     81.93%     82.29% # Type of FU issued
system.cpu0.iq.FU_type_0::IntMult                4358      0.02%     82.31% # Type of FU issued
system.cpu0.iq.FU_type_0::IntDiv                50716      0.22%     82.53% # Type of FU issued
system.cpu0.iq.FU_type_0::FloatAdd              73416      0.32%     82.86% # Type of FU issued
system.cpu0.iq.FU_type_0::FloatCmp                  0      0.00%     82.86% # Type of FU issued
system.cpu0.iq.FU_type_0::FloatCvt                  0      0.00%     82.86% # Type of FU issued
system.cpu0.iq.FU_type_0::FloatMult                 0      0.00%     82.86% # Type of FU issued
system.cpu0.iq.FU_type_0::FloatMultAcc              0      0.00%     82.86% # Type of FU issued
system.cpu0.iq.FU_type_0::FloatDiv                  0      0.00%     82.86% # Type of FU issued
system.cpu0.iq.FU_type_0::FloatMisc                 0      0.00%     82.86% # Type of FU issued
system.cpu0.iq.FU_type_0::FloatSqrt                 0      0.00%     82.86% # Type of FU issued
system.cpu0.iq.FU_type_0::SimdAdd                   0      0.00%     82.86% # Type of FU issued
system.cpu0.iq.FU_type_0::SimdAddAcc                0      0.00%     82.86% # Type of FU issued
system.cpu0.iq.FU_type_0::SimdAlu                   0      0.00%     82.86% # Type of FU issued
system.cpu0.iq.FU_type_0::SimdCmp                   0      0.00%     82.86% # Type of FU issued
system.cpu0.iq.FU_type_0::SimdCvt                   0      0.00%     82.86% # Type of FU issued
system.cpu0.iq.FU_type_0::SimdMisc                  0      0.00%     82.86% # Type of FU issued
system.cpu0.iq.FU_type_0::SimdMult                  0      0.00%     82.86% # Type of FU issued
system.cpu0.iq.FU_type_0::SimdMultAcc               0      0.00%     82.86% # Type of FU issued
system.cpu0.iq.FU_type_0::SimdShift                 0      0.00%     82.86% # Type of FU issued
system.cpu0.iq.FU_type_0::SimdShiftAcc              0      0.00%     82.86% # Type of FU issued
system.cpu0.iq.FU_type_0::SimdSqrt                  0      0.00%     82.86% # Type of FU issued
system.cpu0.iq.FU_type_0::SimdFloatAdd              0      0.00%     82.86% # Type of FU issued
system.cpu0.iq.FU_type_0::SimdFloatAlu              0      0.00%     82.86% # Type of FU issued
system.cpu0.iq.FU_type_0::SimdFloatCmp              0      0.00%     82.86% # Type of FU issued
system.cpu0.iq.FU_type_0::SimdFloatCvt              0      0.00%     82.86% # Type of FU issued
system.cpu0.iq.FU_type_0::SimdFloatDiv              0      0.00%     82.86% # Type of FU issued
system.cpu0.iq.FU_type_0::SimdFloatMisc             0      0.00%     82.86% # Type of FU issued
system.cpu0.iq.FU_type_0::SimdFloatMult             0      0.00%     82.86% # Type of FU issued
system.cpu0.iq.FU_type_0::SimdFloatMultAcc            0      0.00%     82.86% # Type of FU issued
system.cpu0.iq.FU_type_0::SimdFloatSqrt             0      0.00%     82.86% # Type of FU issued
system.cpu0.iq.FU_type_0::MemRead             3643034     15.91%     98.76% # Type of FU issued
system.cpu0.iq.FU_type_0::MemWrite             270205      1.18%     99.94% # Type of FU issued
system.cpu0.iq.FU_type_0::FloatMemRead          13006      0.06%    100.00% # Type of FU issued
system.cpu0.iq.FU_type_0::FloatMemWrite           655      0.00%    100.00% # Type of FU issued
system.cpu0.iq.FU_type_0::IprAccess                 0      0.00%    100.00% # Type of FU issued
system.cpu0.iq.FU_type_0::InstPrefetch              0      0.00%    100.00% # Type of FU issued
system.cpu0.iq.FU_type_0::total              22904417                       # Type of FU issued
system.cpu0.iq.rate                          0.750111                       # Inst issue rate
system.cpu0.iq.fu_busy_cnt                      86636                       # FU busy when requested
system.cpu0.iq.fu_busy_rate                  0.003783                       # FU busy rate (busy events/executed inst)
system.cpu0.iq.int_inst_queue_reads          76283184                       # Number of integer instruction queue reads
system.cpu0.iq.int_inst_queue_writes         50581642                       # Number of integer instruction queue writes
system.cpu0.iq.int_inst_queue_wakeup_accesses     21849910                       # Number of integer instruction queue wakeup accesses
system.cpu0.iq.fp_inst_queue_reads             181949                       # Number of floating instruction queue reads
system.cpu0.iq.fp_inst_queue_writes            162288                       # Number of floating instruction queue writes
system.cpu0.iq.fp_inst_queue_wakeup_accesses        80536                       # Number of floating instruction queue wakeup accesses
system.cpu0.iq.vec_inst_queue_reads                 0                       # Number of vector instruction queue reads
system.cpu0.iq.vec_inst_queue_writes                0                       # Number of vector instruction queue writes
system.cpu0.iq.vec_inst_queue_wakeup_accesses            0                       # Number of vector instruction queue wakeup accesses
system.cpu0.iq.int_alu_accesses              22813975                       # Number of integer alu accesses
system.cpu0.iq.fp_alu_accesses                  93669                       # Number of floating point alu accesses
system.cpu0.iq.vec_alu_accesses                     0                       # Number of vector alu accesses
system.cpu0.iew.lsq.thread0.forwLoads           28683                       # Number of loads that had data forwarded from stores
system.cpu0.iew.lsq.thread0.invAddrLoads            0                       # Number of loads ignored due to an invalid address
system.cpu0.iew.lsq.thread0.squashedLoads      3629365                       # Number of loads squashed
system.cpu0.iew.lsq.thread0.ignoredResponses          837                       # Number of memory responses ignored because the instruction is squashed
system.cpu0.iew.lsq.thread0.memOrderViolation           26                       # Number of memory ordering violations
system.cpu0.iew.lsq.thread0.squashedStores       220156                       # Number of stores squashed
system.cpu0.iew.lsq.thread0.invAddrSwpfs            0                       # Number of software prefetches ignored due to an invalid address
system.cpu0.iew.lsq.thread0.blockedLoads            0                       # Number of blocked loads due to partial load-store forwarding
system.cpu0.iew.lsq.thread0.rescheduledLoads          259                       # Number of loads that were rescheduled
system.cpu0.iew.lsq.thread0.cacheBlocked         9923                       # Number of times an access to memory failed due to the cache being blocked
system.cpu0.iew.iewIdleCycles                       0                       # Number of cycles IEW is idle
system.cpu0.iew.iewSquashCycles                312678                       # Number of cycles IEW is squashing
system.cpu0.iew.iewBlockCycles               14134317                       # Number of cycles IEW is blocking
system.cpu0.iew.iewUnblockCycles               703635                       # Number of cycles IEW is unblocking
system.cpu0.iew.iewDispatchedInsts           31580465                       # Number of instructions dispatched to IQ
system.cpu0.iew.iewDispSquashedInsts            19345                       # Number of squashed instructions skipped by dispatch
system.cpu0.iew.iewDispLoadInsts              5939404                       # Number of dispatched load instructions
system.cpu0.iew.iewDispStoreInsts              369539                       # Number of dispatched store instructions
system.cpu0.iew.iewDispNonSpecInsts              8555                       # Number of dispatched non-speculative instructions
system.cpu0.iew.iewIQFullEvents                 33768                       # Number of times the IQ has become full, causing a stall
system.cpu0.iew.iewLSQFullEvents                43885                       # Number of times the LSQ has become full, causing a stall
system.cpu0.iew.memOrderViolationEvents            26                       # Number of memory order violations
system.cpu0.iew.predictedTakenIncorrect        162078                       # Number of branches that were predicted taken incorrectly
system.cpu0.iew.predictedNotTakenIncorrect       187220                       # Number of branches that were predicted not taken incorrectly
system.cpu0.iew.branchMispredicts              349298                       # Number of branch mispredicts detected at execute
system.cpu0.iew.iewExecutedInsts             22389456                       # Number of executed instructions
system.cpu0.iew.iewExecLoadInsts              3441299                       # Number of load instructions executed
system.cpu0.iew.iewExecSquashedInsts           514961                       # Number of squashed instructions skipped in execute
system.cpu0.iew.exec_swp                            0                       # number of swp insts executed
system.cpu0.iew.exec_nop                            0                       # number of nop insts executed
system.cpu0.iew.exec_refs                     3692340                       # number of memory reference insts executed
system.cpu0.iew.exec_branches                 2726958                       # Number of branches executed
system.cpu0.iew.exec_stores                    251041                       # Number of stores executed
system.cpu0.iew.exec_rate                    0.733247                       # Inst execution rate
system.cpu0.iew.wb_sent                      22015751                       # cumulative count of insts sent to commit
system.cpu0.iew.wb_count                     21930446                       # cumulative count of insts written-back
system.cpu0.iew.wb_producers                 16296477                       # num instructions producing a value
system.cpu0.iew.wb_consumers                 26102372                       # num instructions consuming a value
system.cpu0.iew.wb_rate                      0.718214                       # insts written-back per cycle
system.cpu0.iew.wb_fanout                    0.624329                       # average fanout of values written-back
system.cpu0.commit.commitSquashedInsts       19164890                       # The number of squashed insts skipped by commit
system.cpu0.commit.branchMispredicts           312662                       # The number of times a branch was mispredicted
system.cpu0.commit.committed_per_cycle::samples     27817814                       # Number of insts commited each cycle
system.cpu0.commit.committed_per_cycle::mean     0.446369                       # Number of insts commited each cycle
system.cpu0.commit.committed_per_cycle::stdev     1.159978                       # Number of insts commited each cycle
system.cpu0.commit.committed_per_cycle::underflows            0      0.00%      0.00% # Number of insts commited each cycle
system.cpu0.commit.committed_per_cycle::0     22419577     80.59%     80.59% # Number of insts commited each cycle
system.cpu0.commit.committed_per_cycle::1      2469881      8.88%     89.47% # Number of insts commited each cycle
system.cpu0.commit.committed_per_cycle::2       609397      2.19%     91.66% # Number of insts commited each cycle
system.cpu0.commit.committed_per_cycle::3      1632227      5.87%     97.53% # Number of insts commited each cycle
system.cpu0.commit.committed_per_cycle::4       280847      1.01%     98.54% # Number of insts commited each cycle
system.cpu0.commit.committed_per_cycle::5       155332      0.56%     99.10% # Number of insts commited each cycle
system.cpu0.commit.committed_per_cycle::6        27580      0.10%     99.20% # Number of insts commited each cycle
system.cpu0.commit.committed_per_cycle::7        17645      0.06%     99.26% # Number of insts commited each cycle
system.cpu0.commit.committed_per_cycle::8       205328      0.74%    100.00% # Number of insts commited each cycle
system.cpu0.commit.committed_per_cycle::overflows            0      0.00%    100.00% # Number of insts commited each cycle
system.cpu0.commit.committed_per_cycle::min_value            0                       # Number of insts commited each cycle
system.cpu0.commit.committed_per_cycle::max_value            8                       # Number of insts commited each cycle
system.cpu0.commit.committed_per_cycle::total     27817814                       # Number of insts commited each cycle
system.cpu0.commit.committedInsts             6217675                       # Number of instructions committed
system.cpu0.commit.committedOps              12417023                       # Number of ops (including micro ops) committed
system.cpu0.commit.swp_count                        0                       # Number of s/w prefetches committed
system.cpu0.commit.refs                       2459421                       # Number of memory references committed
system.cpu0.commit.loads                      2310038                       # Number of loads committed
system.cpu0.commit.membars                          0                       # Number of memory barriers committed
system.cpu0.commit.branches                   2204583                       # Number of branches committed
system.cpu0.commit.vec_insts                        0                       # Number of committed Vector instructions.
system.cpu0.commit.fp_insts                     59996                       # Number of committed floating point instructions.
system.cpu0.commit.int_insts                 12356531                       # Number of committed integer instructions.
system.cpu0.commit.function_calls               26350                       # Number of function calls committed.
system.cpu0.commit.op_class_0::No_OpClass        18008      0.15%      0.15% # Class of committed instruction
system.cpu0.commit.op_class_0::IntAlu         9843726     79.28%     79.42% # Class of committed instruction
system.cpu0.commit.op_class_0::IntMult           1054      0.01%     79.43% # Class of committed instruction
system.cpu0.commit.op_class_0::IntDiv           43574      0.35%     79.78% # Class of committed instruction
system.cpu0.commit.op_class_0::FloatAdd         51240      0.41%     80.19% # Class of committed instruction
system.cpu0.commit.op_class_0::FloatCmp             0      0.00%     80.19% # Class of committed instruction
system.cpu0.commit.op_class_0::FloatCvt             0      0.00%     80.19% # Class of committed instruction
system.cpu0.commit.op_class_0::FloatMult            0      0.00%     80.19% # Class of committed instruction
system.cpu0.commit.op_class_0::FloatMultAcc            0      0.00%     80.19% # Class of committed instruction
system.cpu0.commit.op_class_0::FloatDiv             0      0.00%     80.19% # Class of committed instruction
system.cpu0.commit.op_class_0::FloatMisc            0      0.00%     80.19% # Class of committed instruction
system.cpu0.commit.op_class_0::FloatSqrt            0      0.00%     80.19% # Class of committed instruction
system.cpu0.commit.op_class_0::SimdAdd              0      0.00%     80.19% # Class of committed instruction
system.cpu0.commit.op_class_0::SimdAddAcc            0      0.00%     80.19% # Class of committed instruction
system.cpu0.commit.op_class_0::SimdAlu              0      0.00%     80.19% # Class of committed instruction
system.cpu0.commit.op_class_0::SimdCmp              0      0.00%     80.19% # Class of committed instruction
system.cpu0.commit.op_class_0::SimdCvt              0      0.00%     80.19% # Class of committed instruction
system.cpu0.commit.op_class_0::SimdMisc             0      0.00%     80.19% # Class of committed instruction
system.cpu0.commit.op_class_0::SimdMult             0      0.00%     80.19% # Class of committed instruction
system.cpu0.commit.op_class_0::SimdMultAcc            0      0.00%     80.19% # Class of committed instruction
system.cpu0.commit.op_class_0::SimdShift            0      0.00%     80.19% # Class of committed instruction
system.cpu0.commit.op_class_0::SimdShiftAcc            0      0.00%     80.19% # Class of committed instruction
system.cpu0.commit.op_class_0::SimdSqrt             0      0.00%     80.19% # Class of committed instruction
system.cpu0.commit.op_class_0::SimdFloatAdd            0      0.00%     80.19% # Class of committed instruction
system.cpu0.commit.op_class_0::SimdFloatAlu            0      0.00%     80.19% # Class of committed instruction
system.cpu0.commit.op_class_0::SimdFloatCmp            0      0.00%     80.19% # Class of committed instruction
system.cpu0.commit.op_class_0::SimdFloatCvt            0      0.00%     80.19% # Class of committed instruction
system.cpu0.commit.op_class_0::SimdFloatDiv            0      0.00%     80.19% # Class of committed instruction
system.cpu0.commit.op_class_0::SimdFloatMisc            0      0.00%     80.19% # Class of committed instruction
system.cpu0.commit.op_class_0::SimdFloatMult            0      0.00%     80.19% # Class of committed instruction
system.cpu0.commit.op_class_0::SimdFloatMultAcc            0      0.00%     80.19% # Class of committed instruction
system.cpu0.commit.op_class_0::SimdFloatSqrt            0      0.00%     80.19% # Class of committed instruction
system.cpu0.commit.op_class_0::MemRead        2301282     18.53%     98.73% # Class of committed instruction
system.cpu0.commit.op_class_0::MemWrite        149383      1.20%     99.93% # Class of committed instruction
system.cpu0.commit.op_class_0::FloatMemRead         8756      0.07%    100.00% # Class of committed instruction
system.cpu0.commit.op_class_0::FloatMemWrite            0      0.00%    100.00% # Class of committed instruction
system.cpu0.commit.op_class_0::IprAccess            0      0.00%    100.00% # Class of committed instruction
system.cpu0.commit.op_class_0::InstPrefetch            0      0.00%    100.00% # Class of committed instruction
system.cpu0.commit.op_class_0::total         12417023                       # Class of committed instruction
system.cpu0.commit.bw_lim_events               205328                       # number cycles where commit BW limit reached
system.cpu0.rob.rob_reads                    59194399                       # The number of ROB reads
system.cpu0.rob.rob_writes                   65887440                       # The number of ROB writes
system.cpu0.timesIdled                            398                       # Number of times that the entire CPU went into an idle state and unscheduled itself
system.cpu0.idleCycles                           2478                       # Total number of cycles that the CPU has spent unscheduled due to idling
system.cpu0.committedInsts                    6217675                       # Number of Instructions Simulated
system.cpu0.committedOps                     12417023                       # Number of Ops (including micro ops) Simulated
system.cpu0.cpi                              4.910950                       # CPI: Cycles Per Instruction
system.cpu0.cpi_total                        4.910950                       # CPI: Total CPI of All Threads
system.cpu0.ipc                              0.203627                       # IPC: Instructions Per Cycle
system.cpu0.ipc_total                        0.203627                       # IPC: Total IPC of All Threads
system.cpu0.int_regfile_reads                22790869                       # number of integer regfile reads
system.cpu0.int_regfile_writes               18988670                       # number of integer regfile writes
system.cpu0.fp_regfile_reads                   143202                       # number of floating regfile reads
system.cpu0.fp_regfile_writes                   71440                       # number of floating regfile writes
system.cpu0.cc_regfile_reads                 14444366                       # number of cc regfile reads
system.cpu0.cc_regfile_writes                 6193455                       # number of cc regfile writes
system.cpu0.misc_regfile_reads               11756608                       # number of misc regfile reads
system.cpu0.dcache.tags.pwrStateResidencyTicks::UNDEFINED  15267344125                       # Cumulative time (in ticks) in various power states
system.cpu0.dcache.tags.replacements          1210673                       # number of replacements
system.cpu0.dcache.tags.tagsinuse                 512                       # Cycle average of tags in use
system.cpu0.dcache.tags.total_refs            1505585                       # Total number of references to valid blocks.
system.cpu0.dcache.tags.sampled_refs          1210673                       # Sample count of references to valid blocks.
system.cpu0.dcache.tags.avg_refs             1.243593                       # Average number of references to valid blocks.
system.cpu0.dcache.tags.warmup_cycle                0                       # Cycle when the warmup percentage was hit.
system.cpu0.dcache.tags.occ_blocks::cpu0.data          512                       # Average occupied blocks per requestor
system.cpu0.dcache.tags.occ_percent::cpu0.data            1                       # Average percentage of cache occupancy
system.cpu0.dcache.tags.occ_percent::total            1                       # Average percentage of cache occupancy
system.cpu0.dcache.tags.occ_task_id_blocks::1024          512                       # Occupied blocks per task id
system.cpu0.dcache.tags.age_task_id_blocks_1024::0          479                       # Occupied blocks per task id
system.cpu0.dcache.tags.age_task_id_blocks_1024::1           33                       # Occupied blocks per task id
system.cpu0.dcache.tags.occ_task_id_percent::1024            1                       # Percentage of cache occupancy per task id
system.cpu0.dcache.tags.tag_accesses         15361665                       # Number of tag accesses
system.cpu0.dcache.tags.data_accesses        15361665                       # Number of data accesses
system.cpu0.dcache.pwrStateResidencyTicks::UNDEFINED  15267344125                       # Cumulative time (in ticks) in various power states
system.cpu0.dcache.ReadReq_hits::cpu0.data      1361931                       # number of ReadReq hits
system.cpu0.dcache.ReadReq_hits::total        1361931                       # number of ReadReq hits
system.cpu0.dcache.WriteReq_hits::cpu0.data       142819                       # number of WriteReq hits
system.cpu0.dcache.WriteReq_hits::total        142819                       # number of WriteReq hits
system.cpu0.dcache.demand_hits::cpu0.data      1504750                       # number of demand (read+write) hits
system.cpu0.dcache.demand_hits::total         1504750                       # number of demand (read+write) hits
system.cpu0.dcache.overall_hits::cpu0.data      1504750                       # number of overall hits
system.cpu0.dcache.overall_hits::total        1504750                       # number of overall hits
system.cpu0.dcache.ReadReq_misses::cpu0.data      2026434                       # number of ReadReq misses
system.cpu0.dcache.ReadReq_misses::total      2026434                       # number of ReadReq misses
system.cpu0.dcache.WriteReq_misses::cpu0.data         6564                       # number of WriteReq misses
system.cpu0.dcache.WriteReq_misses::total         6564                       # number of WriteReq misses
system.cpu0.dcache.demand_misses::cpu0.data      2032998                       # number of demand (read+write) misses
system.cpu0.dcache.demand_misses::total       2032998                       # number of demand (read+write) misses
system.cpu0.dcache.overall_misses::cpu0.data      2032998                       # number of overall misses
system.cpu0.dcache.overall_misses::total      2032998                       # number of overall misses
system.cpu0.dcache.ReadReq_miss_latency::cpu0.data  27855437000                       # number of ReadReq miss cycles
system.cpu0.dcache.ReadReq_miss_latency::total  27855437000                       # number of ReadReq miss cycles
system.cpu0.dcache.WriteReq_miss_latency::cpu0.data    450181979                       # number of WriteReq miss cycles
system.cpu0.dcache.WriteReq_miss_latency::total    450181979                       # number of WriteReq miss cycles
system.cpu0.dcache.demand_miss_latency::cpu0.data  28305618979                       # number of demand (read+write) miss cycles
system.cpu0.dcache.demand_miss_latency::total  28305618979                       # number of demand (read+write) miss cycles
system.cpu0.dcache.overall_miss_latency::cpu0.data  28305618979                       # number of overall miss cycles
system.cpu0.dcache.overall_miss_latency::total  28305618979                       # number of overall miss cycles
system.cpu0.dcache.ReadReq_accesses::cpu0.data      3388365                       # number of ReadReq accesses(hits+misses)
system.cpu0.dcache.ReadReq_accesses::total      3388365                       # number of ReadReq accesses(hits+misses)
system.cpu0.dcache.WriteReq_accesses::cpu0.data       149383                       # number of WriteReq accesses(hits+misses)
system.cpu0.dcache.WriteReq_accesses::total       149383                       # number of WriteReq accesses(hits+misses)
system.cpu0.dcache.demand_accesses::cpu0.data      3537748                       # number of demand (read+write) accesses
system.cpu0.dcache.demand_accesses::total      3537748                       # number of demand (read+write) accesses
system.cpu0.dcache.overall_accesses::cpu0.data      3537748                       # number of overall (read+write) accesses
system.cpu0.dcache.overall_accesses::total      3537748                       # number of overall (read+write) accesses
system.cpu0.dcache.ReadReq_miss_rate::cpu0.data     0.598057                       # miss rate for ReadReq accesses
system.cpu0.dcache.ReadReq_miss_rate::total     0.598057                       # miss rate for ReadReq accesses
system.cpu0.dcache.WriteReq_miss_rate::cpu0.data     0.043941                       # miss rate for WriteReq accesses
system.cpu0.dcache.WriteReq_miss_rate::total     0.043941                       # miss rate for WriteReq accesses
system.cpu0.dcache.demand_miss_rate::cpu0.data     0.574659                       # miss rate for demand accesses
system.cpu0.dcache.demand_miss_rate::total     0.574659                       # miss rate for demand accesses
system.cpu0.dcache.overall_miss_rate::cpu0.data     0.574659                       # miss rate for overall accesses
system.cpu0.dcache.overall_miss_rate::total     0.574659                       # miss rate for overall accesses
system.cpu0.dcache.ReadReq_avg_miss_latency::cpu0.data 13746.037127                       # average ReadReq miss latency
system.cpu0.dcache.ReadReq_avg_miss_latency::total 13746.037127                       # average ReadReq miss latency
system.cpu0.dcache.WriteReq_avg_miss_latency::cpu0.data 68583.482480                       # average WriteReq miss latency
system.cpu0.dcache.WriteReq_avg_miss_latency::total 68583.482480                       # average WriteReq miss latency
system.cpu0.dcache.demand_avg_miss_latency::cpu0.data 13923.092388                       # average overall miss latency
system.cpu0.dcache.demand_avg_miss_latency::total 13923.092388                       # average overall miss latency
[...]
system.l2.overall_miss_latency::total       747746000                       # number of overall miss cycles
system.l2.WritebackDirty_accesses::writebacks      1193719                       # number of WritebackDirty accesses(hits+misses)
system.l2.WritebackDirty_accesses::total      1193719                       # number of WritebackDirty accesses(hits+misses)
system.l2.WritebackClean_accesses::writebacks           46                       # number of WritebackClean accesses(hits+misses)
system.l2.WritebackClean_accesses::total           46                       # number of WritebackClean accesses(hits+misses)
system.l2.ReadExReq_accesses::cpu0.data          6535                       # number of ReadExReq accesses(hits+misses)
system.l2.ReadExReq_accesses::total              6535                       # number of ReadExReq accesses(hits+misses)
system.l2.ReadCleanReq_accesses::cpu0.inst           46                       # number of ReadCleanReq accesses(hits+misses)
system.l2.ReadCleanReq_accesses::total             46                       # number of ReadCleanReq accesses(hits+misses)
system.l2.ReadSharedReq_accesses::cpu0.data      1204138                       # number of ReadSharedReq accesses(hits+misses)
system.l2.ReadSharedReq_accesses::total       1204138                       # number of ReadSharedReq accesses(hits+misses)
system.l2.demand_accesses::cpu0.inst               46                       # number of demand (read+write) accesses
system.l2.demand_accesses::cpu0.data          1210673                       # number of demand (read+write) accesses
system.l2.demand_accesses::total              1210719                       # number of demand (read+write) accesses
system.l2.overall_accesses::cpu0.inst              46                       # number of overall (read+write) accesses
system.l2.overall_accesses::cpu0.data         1210673                       # number of overall (read+write) accesses
system.l2.overall_accesses::total             1210719                       # number of overall (read+write) accesses
system.l2.ReadExReq_miss_rate::cpu0.data     0.216526                       # miss rate for ReadExReq accesses
system.l2.ReadExReq_miss_rate::total         0.216526                       # miss rate for ReadExReq accesses
system.l2.ReadSharedReq_miss_rate::cpu0.data     0.001320                       # miss rate for ReadSharedReq accesses
system.l2.ReadSharedReq_miss_rate::total     0.001320                       # miss rate for ReadSharedReq accesses
system.l2.demand_miss_rate::cpu0.data        0.002482                       # miss rate for demand accesses
system.l2.demand_miss_rate::total            0.002482                       # miss rate for demand accesses
system.l2.overall_miss_rate::cpu0.data       0.002482                       # miss rate for overall accesses
system.l2.overall_miss_rate::total           0.002482                       # miss rate for overall accesses
system.l2.ReadExReq_avg_miss_latency::cpu0.data 264553.710247                       # average ReadExReq miss latency
system.l2.ReadExReq_avg_miss_latency::total 264553.710247                       # average ReadExReq miss latency
system.l2.ReadSharedReq_avg_miss_latency::cpu0.data 234844.339623                       # average ReadSharedReq miss latency
system.l2.ReadSharedReq_avg_miss_latency::total 234844.339623                       # average ReadSharedReq miss latency
system.l2.demand_avg_miss_latency::cpu0.data 248833.943428                       # average overall miss latency
system.l2.demand_avg_miss_latency::total 248833.943428                       # average overall miss latency
system.l2.overall_avg_miss_latency::cpu0.data 248833.943428                       # average overall miss latency
system.l2.overall_avg_miss_latency::total 248833.943428                       # average overall miss latency
system.l2.blocked_cycles::no_mshrs                  0                       # number of cycles access was blocked
system.l2.blocked_cycles::no_targets                0                       # number of cycles access was blocked
system.l2.blocked::no_mshrs                         0                       # number of cycles access was blocked
system.l2.blocked::no_targets                       0                       # number of cycles access was blocked
system.l2.avg_blocked_cycles::no_mshrs            nan                       # average number of cycles each access was blocked
system.l2.avg_blocked_cycles::no_targets          nan                       # average number of cycles each access was blocked
system.l2.writebacks::writebacks                  491                       # number of writebacks
system.l2.writebacks::total                       491                       # number of writebacks
system.l2.ReadExReq_mshr_misses::cpu0.data         1415                       # number of ReadExReq MSHR misses
system.l2.ReadExReq_mshr_misses::total           1415                       # number of ReadExReq MSHR misses
system.l2.ReadSharedReq_mshr_misses::cpu0.data         1590                       # number of ReadSharedReq MSHR misses
system.l2.ReadSharedReq_mshr_misses::total         1590                       # number of ReadSharedReq MSHR misses
system.l2.demand_mshr_misses::cpu0.data          3005                       # number of demand (read+write) MSHR misses
system.l2.demand_mshr_misses::total              3005                       # number of demand (read+write) MSHR misses
system.l2.overall_mshr_misses::cpu0.data         3005                       # number of overall MSHR misses
system.l2.overall_mshr_misses::total             3005                       # number of overall MSHR misses
system.l2.ReadExReq_mshr_miss_latency::cpu0.data    360193500                       # number of ReadExReq MSHR miss cycles
system.l2.ReadExReq_mshr_miss_latency::total    360193500                       # number of ReadExReq MSHR miss cycles
system.l2.ReadSharedReq_mshr_miss_latency::cpu0.data    357502500                       # number of ReadSharedReq MSHR miss cycles
system.l2.ReadSharedReq_mshr_miss_latency::total    357502500                       # number of ReadSharedReq MSHR miss cycles
system.l2.demand_mshr_miss_latency::cpu0.data    717696000                       # number of demand (read+write) MSHR miss cycles
system.l2.demand_mshr_miss_latency::total    717696000                       # number of demand (read+write) MSHR miss cycles
system.l2.overall_mshr_miss_latency::cpu0.data    717696000                       # number of overall MSHR miss cycles
system.l2.overall_mshr_miss_latency::total    717696000                       # number of overall MSHR miss cycles
system.l2.ReadExReq_mshr_miss_rate::cpu0.data     0.216526                       # mshr miss rate for ReadExReq accesses
system.l2.ReadExReq_mshr_miss_rate::total     0.216526                       # mshr miss rate for ReadExReq accesses
system.l2.ReadSharedReq_mshr_miss_rate::cpu0.data     0.001320                       # mshr miss rate for ReadSharedReq accesses
system.l2.ReadSharedReq_mshr_miss_rate::total     0.001320                       # mshr miss rate for ReadSharedReq accesses
system.l2.demand_mshr_miss_rate::cpu0.data     0.002482                       # mshr miss rate for demand accesses
system.l2.demand_mshr_miss_rate::total       0.002482                       # mshr miss rate for demand accesses
system.l2.overall_mshr_miss_rate::cpu0.data     0.002482                       # mshr miss rate for overall accesses
system.l2.overall_mshr_miss_rate::total      0.002482                       # mshr miss rate for overall accesses
system.l2.ReadExReq_avg_mshr_miss_latency::cpu0.data 254553.710247                       # average ReadExReq mshr miss latency
system.l2.ReadExReq_avg_mshr_miss_latency::total 254553.710247                       # average ReadExReq mshr miss latency
system.l2.ReadSharedReq_avg_mshr_miss_latency::cpu0.data 224844.339623                       # average ReadSharedReq mshr miss latency
system.l2.ReadSharedReq_avg_mshr_miss_latency::total 224844.339623                       # average ReadSharedReq mshr miss latency
system.l2.demand_avg_mshr_miss_latency::cpu0.data 238833.943428                       # average overall mshr miss latency
system.l2.demand_avg_mshr_miss_latency::total 238833.943428                       # average overall mshr miss latency
system.l2.overall_avg_mshr_miss_latency::cpu0.data 238833.943428                       # average overall mshr miss latency
system.l2.overall_avg_mshr_miss_latency::total 238833.943428                       # average overall mshr miss latency
system.membus.snoop_filter.tot_requests          6007                       # Total number of requests made to the snoop filter.
system.membus.snoop_filter.hit_single_requests         3002                       # Number of requests hitting in the snoop filter with a single holder of the requested data.
system.membus.snoop_filter.hit_multi_requests            0                       # Number of requests hitting in the snoop filter with multiple (>1) holders of the requested data.
system.membus.snoop_filter.tot_snoops               0                       # Total number of snoops made to the snoop filter.
system.membus.snoop_filter.hit_single_snoops            0                       # Number of snoops hitting in the snoop filter with a single holder of the requested data.
system.membus.snoop_filter.hit_multi_snoops            0                       # Number of snoops hitting in the snoop filter with multiple (>1) holders of the requested data.
system.membus.pwrStateResidencyTicks::UNDEFINED  15267344125                       # Cumulative time (in ticks) in various power states
system.membus.trans_dist::ReadResp               1590                       # Transaction distribution
system.membus.trans_dist::WritebackDirty          491                       # Transaction distribution
system.membus.trans_dist::CleanEvict             2511                       # Transaction distribution
system.membus.trans_dist::ReadExReq              1415                       # Transaction distribution
system.membus.trans_dist::ReadExResp             1415                       # Transaction distribution
system.membus.trans_dist::ReadSharedReq          1590                       # Transaction distribution
system.membus.pkt_count_system.l2.mem_side::system.mem_ctrls.port         9012                       # Packet count per connected master and slave (bytes)
system.membus.pkt_count_system.l2.mem_side::total         9012                       # Packet count per connected master and slave (bytes)
system.membus.pkt_count::total                   9012                       # Packet count per connected master and slave (bytes)
system.membus.pkt_size_system.l2.mem_side::system.mem_ctrls.port       223744                       # Cumulative packet size per connected master and slave (bytes)
system.membus.pkt_size_system.l2.mem_side::total       223744                       # Cumulative packet size per connected master and slave (bytes)
system.membus.pkt_size::total                  223744                       # Cumulative packet size per connected master and slave (bytes)
system.membus.snoops                                0                       # Total snoops (count)
system.membus.snoopTraffic                          0                       # Total snoop traffic (bytes)
system.membus.snoop_fanout::samples              3005                       # Request fanout histogram
system.membus.snoop_fanout::mean                    0                       # Request fanout histogram
system.membus.snoop_fanout::stdev                   0                       # Request fanout histogram
system.membus.snoop_fanout::underflows              0      0.00%      0.00% # Request fanout histogram
system.membus.snoop_fanout::0                    3005    100.00%    100.00% # Request fanout histogram
system.membus.snoop_fanout::1                       0      0.00%    100.00% # Request fanout histogram
system.membus.snoop_fanout::overflows               0      0.00%    100.00% # Request fanout histogram
system.membus.snoop_fanout::min_value               0                       # Request fanout histogram
system.membus.snoop_fanout::max_value               0                       # Request fanout histogram
system.membus.snoop_fanout::total                3005                       # Request fanout histogram
system.membus.reqLayer12.occupancy            8724000                       # Layer occupancy (ticks)
system.membus.reqLayer12.utilization              0.1                       # Layer utilization (%)
system.membus.respLayer1.occupancy           16393750                       # Layer occupancy (ticks)
system.membus.respLayer1.utilization              0.1                       # Layer utilization (%)
system.tol2bus.snoop_filter.tot_requests      2421438                       # Total number of requests made to the snoop filter.
system.tol2bus.snoop_filter.hit_single_requests      1210718                       # Number of requests hitting in the snoop filter with a single holder of the requested data.
system.tol2bus.snoop_filter.hit_multi_requests         3015                       # Number of requests hitting in the snoop filter with multiple (>1) holders of the requested data.
system.tol2bus.snoop_filter.tot_snoops              5                       # Total number of snoops made to the snoop filter.
system.tol2bus.snoop_filter.hit_single_snoops            5                       # Number of snoops hitting in the snoop filter with a single holder of the requested data.
system.tol2bus.snoop_filter.hit_multi_snoops            0                       # Number of snoops hitting in the snoop filter with multiple (>1) holders of the requested data.
system.tol2bus.pwrStateResidencyTicks::UNDEFINED  15267344125                       # Cumulative time (in ticks) in various power states
system.tol2bus.trans_dist::ReadResp           1204185                       # Transaction distribution
system.tol2bus.trans_dist::WritebackDirty      1194210                       # Transaction distribution
system.tol2bus.trans_dist::WritebackClean           46                       # Transaction distribution
system.tol2bus.trans_dist::CleanEvict           19470                       # Transaction distribution
system.tol2bus.trans_dist::ReadExReq             6535                       # Transaction distribution
system.tol2bus.trans_dist::ReadExResp            6535                       # Transaction distribution
system.tol2bus.trans_dist::ReadCleanReq            46                       # Transaction distribution
system.tol2bus.trans_dist::ReadSharedReq      1204138                       # Transaction distribution
system.tol2bus.pkt_count_system.cpu0.icache.mem_side::system.l2.cpu_side          138                       # Packet count per connected master and slave (bytes)
system.tol2bus.pkt_count_system.cpu0.dcache.mem_side::system.l2.cpu_side      3632020                       # Packet count per connected master and slave (bytes)
system.tol2bus.pkt_count::total               3632158                       # Packet count per connected master and slave (bytes)
system.tol2bus.pkt_size_system.cpu0.icache.mem_side::system.l2.cpu_side         5888                       # Cumulative packet size per connected master and slave (bytes)
system.tol2bus.pkt_size_system.cpu0.dcache.mem_side::system.l2.cpu_side    153881152                       # Cumulative packet size per connected master and slave (bytes)
system.tol2bus.pkt_size::total              153887040                       # Cumulative packet size per connected master and slave (bytes)
system.tol2bus.snoops                            3007                       # Total snoops (count)
system.tol2bus.snoopTraffic                     31424                       # Total snoop traffic (bytes)
system.tol2bus.snoop_fanout::samples          1213726                       # Request fanout histogram
system.tol2bus.snoop_fanout::mean            0.002487                       # Request fanout histogram
system.tol2bus.snoop_fanout::stdev           0.049812                       # Request fanout histogram
system.tol2bus.snoop_fanout::underflows             0      0.00%      0.00% # Request fanout histogram
system.tol2bus.snoop_fanout::0                1210707     99.75%     99.75% # Request fanout histogram
system.tol2bus.snoop_fanout::1                   3019      0.25%    100.00% # Request fanout histogram
system.tol2bus.snoop_fanout::2                      0      0.00%    100.00% # Request fanout histogram
system.tol2bus.snoop_fanout::3                      0      0.00%    100.00% # Request fanout histogram
system.tol2bus.snoop_fanout::4                      0      0.00%    100.00% # Request fanout histogram
system.tol2bus.snoop_fanout::5                      0      0.00%    100.00% # Request fanout histogram
system.tol2bus.snoop_fanout::6                      0      0.00%    100.00% # Request fanout histogram
system.tol2bus.snoop_fanout::7                      0      0.00%    100.00% # Request fanout histogram
system.tol2bus.snoop_fanout::8                      0      0.00%    100.00% # Request fanout histogram
system.tol2bus.snoop_fanout::9                      0      0.00%    100.00% # Request fanout histogram
system.tol2bus.snoop_fanout::10                     0      0.00%    100.00% # Request fanout histogram
system.tol2bus.snoop_fanout::11                     0      0.00%    100.00% # Request fanout histogram
system.tol2bus.snoop_fanout::12                     0      0.00%    100.00% # Request fanout histogram
system.tol2bus.snoop_fanout::13                     0      0.00%    100.00% # Request fanout histogram
system.tol2bus.snoop_fanout::14                     0      0.00%    100.00% # Request fanout histogram
system.tol2bus.snoop_fanout::15                     0      0.00%    100.00% # Request fanout histogram
system.tol2bus.snoop_fanout::16                     0      0.00%    100.00% # Request fanout histogram
system.tol2bus.snoop_fanout::17                     0      0.00%    100.00% # Request fanout histogram
system.tol2bus.snoop_fanout::18                     0      0.00%    100.00% # Request fanout histogram
system.tol2bus.snoop_fanout::19                     0      0.00%    100.00% # Request fanout histogram
system.tol2bus.snoop_fanout::20                     0      0.00%    100.00% # Request fanout histogram
system.tol2bus.snoop_fanout::21                     0      0.00%    100.00% # Request fanout histogram
system.tol2bus.snoop_fanout::22                     0      0.00%    100.00% # Request fanout histogram
system.tol2bus.snoop_fanout::23                     0      0.00%    100.00% # Request fanout histogram
system.tol2bus.snoop_fanout::24                     0      0.00%    100.00% # Request fanout histogram
system.tol2bus.snoop_fanout::overflows              0      0.00%    100.00% # Request fanout histogram
system.tol2bus.snoop_fanout::min_value              0                       # Request fanout histogram
system.tol2bus.snoop_fanout::max_value              1                       # Request fanout histogram
system.tol2bus.snoop_fanout::total            1213726                       # Request fanout histogram
system.tol2bus.reqLayer0.occupancy         2404484000                       # Layer occupancy (ticks)
system.tol2bus.reqLayer0.utilization             15.7                       # Layer utilization (%)
system.tol2bus.respLayer0.occupancy             69000                       # Layer occupancy (ticks)
system.tol2bus.respLayer0.utilization             0.0                       # Layer utilization (%)
system.tol2bus.respLayer1.occupancy        1816011000                       # Layer occupancy (ticks)
system.tol2bus.respLayer1.utilization            11.9                       # Layer utilization (%)

---------- End Simulation Statistics   ----------
