
---------- Begin Simulation Statistics ----------
sim_seconds                                  0.015267                       # Number of seconds simulated
sim_ticks                                 15267344125                       # Number of ticks simulated
final_tick                               2045824112750                       # Number of ticks from beginning of simulation (restored from checkpoints and never reset)
sim_freq                                 1000000000000                       # Frequency of simulated ticks
host_inst_rate                               20743768                       # Simulator instruction rate (inst/s)
host_op_rate                                 37581239                       # Simulator op (including micro ops) rate (op/s)
host_tick_rate                               67398124                       # Simulator tick rate (ticks/s)
host_mem_usage                                3428828                       # Number of bytes of host memory used
host_seconds                                   226.52                       # Real time elapsed on the host
sim_insts                                  4698976800                       # Number of instructions simulated
sim_ops                                    8513080875                       # Number of ops (including micro ops) simulated
system.voltage_domain.voltage                       1                       # Voltage in Volts
system.clk_domain.clock                          1000                       # Clock period in ticks
system.mem_ctrls.pwrStateResidencyTicks::UNDEFINED  15267344125                       # Cumulative time (in ticks) in various power states
system.mem_ctrls.bytes_read::cpu0.data         914176                       # Number of bytes read from this memory
system.mem_ctrls.bytes_read::total             914176                       # Number of bytes read from this memory
system.mem_ctrls.bytes_written::writebacks       845248                       # Number of bytes written to this memory
system.mem_ctrls.bytes_written::total          845248                       # Number of bytes written to this memory
system.mem_ctrls.num_reads::cpu0.data           14284                       # Number of read requests responded to by this memory
system.mem_ctrls.num_reads::total               14284                       # Number of read requests responded to by this memory
system.mem_ctrls.num_writes::writebacks         13207                       # Number of write requests responded to by this memory
system.mem_ctrls.num_writes::total              13207                       # Number of write requests responded to by this memory
system.mem_ctrls.bw_read::cpu0.data          59877867                       # Total read bandwidth from this memory (bytes/s)
system.mem_ctrls.bw_read::total              59877867                       # Total read bandwidth from this memory (bytes/s)
system.mem_ctrls.bw_write::writebacks        55363133                       # Write bandwidth from this memory (bytes/s)
system.mem_ctrls.bw_write::total             55363133                       # Write bandwidth from this memory (bytes/s)
system.mem_ctrls.bw_total::writebacks        55363133                       # Total bandwidth to/from this memory (bytes/s)
system.mem_ctrls.bw_total::cpu0.data         59877867                       # Total bandwidth to/from this memory (bytes/s)
system.mem_ctrls.bw_total::total            115241000                       # Total bandwidth to/from this memory (bytes/s)
system.mem_ctrls.readReqs                       14284                       # Number of read requests accepted
system.mem_ctrls.writeReqs                      13207                       # Number of write requests accepted
system.mem_ctrls.readBursts                     14284                       # Number of DRAM read bursts, including those serviced by the write queue
system.mem_ctrls.writeBursts                    13207                       # Number of DRAM write bursts, including those merged in the write queue
system.mem_ctrls.bytesReadDRAM                 914176                       # Total number of bytes read from DRAM
system.mem_ctrls.bytesReadWrQ                       0                       # Total number of bytes read from write queue
system.mem_ctrls.bytesWritten                  845376                       # Total number of bytes written to DRAM
system.mem_ctrls.bytesReadSys                  914176                       # Total read bytes from the system interface side
system.mem_ctrls.bytesWrittenSys               845248                       # Total written bytes from the system interface side
system.mem_ctrls.servicedByWrQ                      0                       # Number of DRAM read bursts serviced by the write queue
system.mem_ctrls.mergedWrBursts                     0                       # Number of DRAM write bursts merged with an existing one
system.mem_ctrls.neitherReadNorWriteReqs            0                       # Number of requests that are neither read nor write
system.mem_ctrls.perBankRdBursts::0               837                       # Per bank write bursts
system.mem_ctrls.perBankRdBursts::1               896                       # Per bank write bursts
system.mem_ctrls.perBankRdBursts::2               913                       # Per bank write bursts
system.mem_ctrls.perBankRdBursts::3               902                       # Per bank write bursts
system.mem_ctrls.perBankRdBursts::4               896                       # Per bank write bursts
system.mem_ctrls.perBankRdBursts::5               952                       # Per bank write bursts
system.mem_ctrls.perBankRdBursts::6               998                       # Per bank write bursts
system.mem_ctrls.perBankRdBursts::7               901                       # Per bank write bursts
system.mem_ctrls.perBankRdBursts::8               915                       # Per bank write bursts
system.mem_ctrls.perBankRdBursts::9               943                       # Per bank write bursts
system.mem_ctrls.perBankRdBursts::10             1024                       # Per bank write bursts
system.mem_ctrls.perBankRdBursts::11              928                       # Per bank write bursts
system.mem_ctrls.perBankRdBursts::12              832                       # Per bank write bursts
system.mem_ctrls.perBankRdBursts::13              806                       # Per bank write bursts
system.mem_ctrls.perBankRdBursts::14              773                       # Per bank write bursts
system.mem_ctrls.perBankRdBursts::15              768                       # Per bank write bursts
system.mem_ctrls.perBankWrBursts::0               852                       # Per bank write bursts
system.mem_ctrls.perBankWrBursts::1               867                       # Per bank write bursts
system.mem_ctrls.perBankWrBursts::2               913                       # Per bank write bursts
system.mem_ctrls.perBankWrBursts::3               899                       # Per bank write bursts
system.mem_ctrls.perBankWrBursts::4               768                       # Per bank write bursts
system.mem_ctrls.perBankWrBursts::5               825                       # Per bank write bursts
system.mem_ctrls.perBankWrBursts::6               814                       # Per bank write bursts
system.mem_ctrls.perBankWrBursts::7               773                       # Per bank write bursts
system.mem_ctrls.perBankWrBursts::8               787                       # Per bank write bursts
system.mem_ctrls.perBankWrBursts::9               817                       # Per bank write bursts
system.mem_ctrls.perBankWrBursts::10              896                       # Per bank write bursts
system.mem_ctrls.perBankWrBursts::11              835                       # Per bank write bursts
system.mem_ctrls.perBankWrBursts::12              802                       # Per bank write bursts
system.mem_ctrls.perBankWrBursts::13              806                       # Per bank write bursts
system.mem_ctrls.perBankWrBursts::14              773                       # Per bank write bursts
system.mem_ctrls.perBankWrBursts::15              782                       # Per bank write bursts
system.mem_ctrls.numRdRetry                         0                       # Number of times read queue was full causing retry
system.mem_ctrls.numWrRetry                         0                       # Number of times write queue was full causing retry
system.mem_ctrls.totGap                   15267526000                       # Total gap between requests
system.mem_ctrls.readPktSize::0                     0                       # Read request sizes (log2)
system.mem_ctrls.readPktSize::1                     0                       # Read request sizes (log2)
system.mem_ctrls.readPktSize::2                     0                       # Read request sizes (log2)
system.mem_ctrls.readPktSize::3                     0                       # Read request sizes (log2)
system.mem_ctrls.readPktSize::4                     0                       # Read request sizes (log2)
system.mem_ctrls.readPktSize::5                     0                       # Read request sizes (log2)
system.mem_ctrls.readPktSize::6                 14284                       # Read request sizes (log2)
system.mem_ctrls.writePktSize::0                    0                       # Write request sizes (log2)
system.mem_ctrls.writePktSize::1                    0                       # Write request sizes (log2)
system.mem_ctrls.writePktSize::2                    0                       # Write request sizes (log2)
system.mem_ctrls.writePktSize::3                    0                       # Write request sizes (log2)
system.mem_ctrls.writePktSize::4                    0                       # Write request sizes (log2)
system.mem_ctrls.writePktSize::5                    0                       # Write request sizes (log2)
system.mem_ctrls.writePktSize::6                13207                       # Write request sizes (log2)
system.mem_ctrls.rdQLenPdf::0                   14284                       # What read queue length does an incoming req see
system.mem_ctrls.rdQLenPdf::1                       0                       # What read queue length does an incoming req see
system.mem_ctrls.rdQLenPdf::2                       0                       # What read queue length does an incoming req see
system.mem_ctrls.rdQLenPdf::3                       0                       # What read queue length does an incoming req see
system.mem_ctrls.rdQLenPdf::4                       0                       # What read queue length does an incoming req see
system.mem_ctrls.rdQLenPdf::5                       0                       # What read queue length does an incoming req see
system.mem_ctrls.rdQLenPdf::6                       0                       # What read queue length does an incoming req see
system.mem_ctrls.rdQLenPdf::7                       0                       # What read queue length does an incoming req see
system.mem_ctrls.rdQLenPdf::8                       0                       # What read queue length does an incoming req see
system.mem_ctrls.rdQLenPdf::9                       0                       # What read queue length does an incoming req see
system.mem_ctrls.rdQLenPdf::10                      0                       # What read queue length does an incoming req see
system.mem_ctrls.rdQLenPdf::11                      0                       # What read queue length does an incoming req see
system.mem_ctrls.rdQLenPdf::12                      0                       # What read queue length does an incoming req see
system.mem_ctrls.rdQLenPdf::13                      0                       # What read queue length does an incoming req see
system.mem_ctrls.rdQLenPdf::14                      0                       # What read queue length does an incoming req see
system.mem_ctrls.rdQLenPdf::15                      0                       # What read queue length does an incoming req see
system.mem_ctrls.rdQLenPdf::16                      0                       # What read queue length does an incoming req see
system.mem_ctrls.rdQLenPdf::17                      0                       # What read queue length does an incoming req see
system.mem_ctrls.rdQLenPdf::18                      0                       # What read queue length does an incoming req see
system.mem_ctrls.rdQLenPdf::19                      0                       # What read queue length does an incoming req see
system.mem_ctrls.rdQLenPdf::20                      0                       # What read queue length does an incoming req see
system.mem_ctrls.rdQLenPdf::21                      0                       # What read queue length does an incoming req see
system.mem_ctrls.rdQLenPdf::22                      0                       # What read queue length does an incoming req see
system.mem_ctrls.rdQLenPdf::23                      0                       # What read queue length does an incoming req see
system.mem_ctrls.rdQLenPdf::24                      0                       # What read queue length does an incoming req see
system.mem_ctrls.rdQLenPdf::25                      0                       # What read queue length does an incoming req see
system.mem_ctrls.rdQLenPdf::26                      0                       # What read queue length does an incoming req see
system.mem_ctrls.rdQLenPdf::27                      0                       # What read queue length does an incoming req see
system.mem_ctrls.rdQLenPdf::28                      0                       # What read queue length does an incoming req see
system.mem_ctrls.rdQLenPdf::29                      0                       # What read queue length does an incoming req see
system.mem_ctrls.rdQLenPdf::30                      0                       # What read queue length does an incoming req see
system.mem_ctrls.rdQLenPdf::31                      0                       # What read queue length does an incoming req see
system.mem_ctrls.wrQLenPdf::0                       0                       # What write queue length does an incoming req see
system.mem_ctrls.wrQLenPdf::1                       0                       # What write queue length does an incoming req see
system.mem_ctrls.wrQLenPdf::2                       0                       # What write queue length does an incoming req see
system.mem_ctrls.wrQLenPdf::3                       0                       # What write queue length does an incoming req see
system.mem_ctrls.wrQLenPdf::4                       0                       # What write queue length does an incoming req see
system.mem_ctrls.wrQLenPdf::5                       0                       # What write queue length does an incoming req see
system.mem_ctrls.wrQLenPdf::6                       0                       # What write queue length does an incoming req see
system.mem_ctrls.wrQLenPdf::7                       0                       # What write queue length does an incoming req see
system.mem_ctrls.wrQLenPdf::8                       0                       # What write queue length does an incoming req see
system.mem_ctrls.wrQLenPdf::9                       0                       # What write queue length does an incoming req see
system.mem_ctrls.wrQLenPdf::10                      0                       # What write queue length does an incoming req see
system.mem_ctrls.wrQLenPdf::11                      0                       # What write queue length does an incoming req see
system.mem_ctrls.wrQLenPdf::12                      0                       # What write queue length does an incoming req see
system.mem_ctrls.wrQLenPdf::13                      0                       # What write queue length does an incoming req see
system.mem_ctrls.wrQLenPdf::14                      0                       # What write queue length does an incoming req see
system.mem_ctrls.wrQLenPdf::15                    716                       # What write queue length does an incoming req see
system.mem_ctrls.wrQLenPdf::16                    717                       # What write queue length does an incoming req see
system.mem_ctrls.wrQLenPdf::17                    736                       # What write queue length does an incoming req see
system.mem_ctrls.wrQLenPdf::18                    736                       # What write queue length does an incoming req see
system.mem_ctrls.wrQLenPdf::19                    736                       # What write queue length does an incoming req see
system.mem_ctrls.wrQLenPdf::20                    736                       # What write queue length does an incoming req see
system.mem_ctrls.wrQLenPdf::21                    736                       # What write queue length does an incoming req see
system.mem_ctrls.wrQLenPdf::22                    736                       # What write queue length does an incoming req see
system.mem_ctrls.wrQLenPdf::23                    736                       # What write queue length does an incoming req see
system.mem_ctrls.wrQLenPdf::24                    736                       # What write queue length does an incoming req see
system.mem_ctrls.wrQLenPdf::25                    736                       # What write queue length does an incoming req see
system.mem_ctrls.wrQLenPdf::26                    736                       # What write queue length does an incoming req see
system.mem_ctrls.wrQLenPdf::27                    736                       # What write queue length does an incoming req see
system.mem_ctrls.wrQLenPdf::28                    736                       # What write queue length does an incoming req see
system.mem_ctrls.wrQLenPdf::29                    736                       # What write queue length does an incoming req see
system.mem_ctrls.wrQLenPdf::30                    735                       # What write queue length does an incoming req see
system.mem_ctrls.wrQLenPdf::31                    735                       # What write queue length does an incoming req see
system.mem_ctrls.wrQLenPdf::32                    736                       # What write queue length does an incoming req see
system.mem_ctrls.wrQLenPdf::33                      0                       # What write queue length does an incoming req see
system.mem_ctrls.wrQLenPdf::34                      0                       # What write queue length does an incoming req see
system.mem_ctrls.wrQLenPdf::35                      0                       # What write queue length does an incoming req see
system.mem_ctrls.wrQLenPdf::36                      0                       # What write queue length does an incoming req see
system.mem_ctrls.wrQLenPdf::37                      0                       # What write queue length does an incoming req see
system.mem_ctrls.wrQLenPdf::38                      0                       # What write queue length does an incoming req see
system.mem_ctrls.wrQLenPdf::39                      0                       # What write queue length does an incoming req see
system.mem_ctrls.wrQLenPdf::40                      0                       # What write queue length does an incoming req see
system.mem_ctrls.wrQLenPdf::41                      0                       # What write queue length does an incoming req see
system.mem_ctrls.wrQLenPdf::42                      0                       # What write queue length does an incoming req see
system.mem_ctrls.wrQLenPdf::43                      0                       # What write queue length does an incoming req see
system.mem_ctrls.wrQLenPdf::44                      0                       # What write queue length does an incoming req see
system.mem_ctrls.wrQLenPdf::45                      0                       # What write queue length does an incoming req see
system.mem_ctrls.wrQLenPdf::46                      0                       # What write queue length does an incoming req see
system.mem_ctrls.wrQLenPdf::47                      0                       # What write queue length does an incoming req see
system.mem_ctrls.wrQLenPdf::48                      0                       # What write queue length does an incoming req see
system.mem_ctrls.wrQLenPdf::49                      0                       # What write queue length does an incoming req see
system.mem_ctrls.wrQLenPdf::50                      0                       # What write queue length does an incoming req see
system.mem_ctrls.wrQLenPdf::51                      0                       # What write queue length does an incoming req see
system.mem_ctrls.wrQLenPdf::52                      0                       # What write queue length does an incoming req see
system.mem_ctrls.wrQLenPdf::53                      0                       # What write queue length does an incoming req see
system.mem_ctrls.wrQLenPdf::54                      0                       # What write queue length does an incoming req see
system.mem_ctrls.wrQLenPdf::55                      0                       # What write queue length does an incoming req see
system.mem_ctrls.wrQLenPdf::56                      0                       # What write queue length does an incoming req see
system.mem_ctrls.wrQLenPdf::57                      0                       # What write queue length does an incoming req see
system.mem_ctrls.wrQLenPdf::58                      0                       # What write queue length does an incoming req see
system.mem_ctrls.wrQLenPdf::59                      0                       # What write queue length does an incoming req see
system.mem_ctrls.wrQLenPdf::60                      0                       # What write queue length does an incoming req see
system.mem_ctrls.wrQLenPdf::61                      0                       # What write queue length does an incoming req see
system.mem_ctrls.wrQLenPdf::62                      0                       # What write queue length does an incoming req see
system.mem_ctrls.wrQLenPdf::63                      0                       # What write queue length does an incoming req see
system.mem_ctrls.bytesPerActivate::samples         5949                       # Bytes accessed per row activation
system.mem_ctrls.bytesPerActivate::mean    295.794251                       # Bytes accessed per row activation
system.mem_ctrls.bytesPerActivate::gmean   182.039034                       # Bytes accessed per row activation
system.mem_ctrls.bytesPerActivate::stdev   294.410920                       # Bytes accessed per row activation
system.mem_ctrls.bytesPerActivate::0-127         2433     40.90%     40.90% # Bytes accessed per row activation
system.mem_ctrls.bytesPerActivate::128-255          776     13.04%     53.94% # Bytes accessed per row activation
system.mem_ctrls.bytesPerActivate::256-383          543      9.13%     63.07% # Bytes accessed per row activation
system.mem_ctrls.bytesPerActivate::384-511         1445     24.29%     87.36% # Bytes accessed per row activation
system.mem_ctrls.bytesPerActivate::512-639           34      0.57%     87.93% # Bytes accessed per row activation
system.mem_ctrls.bytesPerActivate::640-767           48      0.81%     88.74% # Bytes accessed per row activation
system.mem_ctrls.bytesPerActivate::768-895           39      0.66%     89.39% # Bytes accessed per row activation
system.mem_ctrls.bytesPerActivate::896-1023           78      1.31%     90.70% # Bytes accessed per row activation
system.mem_ctrls.bytesPerActivate::1024-1151          553      9.30%    100.00% # Bytes accessed per row activation
system.mem_ctrls.bytesPerActivate::total         5949                       # Bytes accessed per row activation
system.mem_ctrls.rdPerTurnAround::samples          736                       # Reads before turning the bus around for writes
system.mem_ctrls.rdPerTurnAround::mean      19.410326                       # Reads before turning the bus around for writes
system.mem_ctrls.rdPerTurnAround::gmean     18.363988                       # Reads before turning the bus around for writes
system.mem_ctrls.rdPerTurnAround::stdev     15.598974                       # Reads before turning the bus around for writes
system.mem_ctrls.rdPerTurnAround::16-23           726     98.64%     98.64% # Reads before turning the bus around for writes
system.mem_ctrls.rdPerTurnAround::40-47             4      0.54%     99.18% # Reads before turning the bus around for writes
system.mem_ctrls.rdPerTurnAround::48-55             1      0.14%     99.32% # Reads before turning the bus around for writes
system.mem_ctrls.rdPerTurnAround::152-159            1      0.14%     99.46% # Reads before turning the bus around for writes
system.mem_ctrls.rdPerTurnAround::200-207            1      0.14%     99.59% # Reads before turning the bus around for writes
system.mem_ctrls.rdPerTurnAround::208-215            1      0.14%     99.73% # Reads before turning the bus around for writes
system.mem_ctrls.rdPerTurnAround::216-223            1      0.14%     99.86% # Reads before turning the bus around for writes
system.mem_ctrls.rdPerTurnAround::232-239            1      0.14%    100.00% # Reads before turning the bus around for writes
system.mem_ctrls.rdPerTurnAround::total           736                       # Reads before turning the bus around for writes
system.mem_ctrls.wrPerTurnAround::samples          736                       # Writes before turning the bus around for reads
system.mem_ctrls.wrPerTurnAround::mean      17.947011                       # Writes before turning the bus around for reads
system.mem_ctrls.wrPerTurnAround::gmean     17.943959                       # Writes before turning the bus around for reads
system.mem_ctrls.wrPerTurnAround::stdev      0.319296                       # Writes before turning the bus around for reads
system.mem_ctrls.wrPerTurnAround::16               19      2.58%      2.58% # Writes before turning the bus around for reads
system.mem_ctrls.wrPerTurnAround::17                1      0.14%      2.72% # Writes before turning the bus around for reads
system.mem_ctrls.wrPerTurnAround::18              716     97.28%    100.00% # Writes before turning the bus around for reads
system.mem_ctrls.wrPerTurnAround::total           736                       # Writes before turning the bus around for reads
system.mem_ctrls.totQLat                    353186250                       # Total ticks spent queuing
system.mem_ctrls.totMemAccLat               621011250                       # Total ticks spent from burst creation until serviced by the DRAM
system.mem_ctrls.totBusLat                   71420000                       # Total ticks spent in databus transfers
system.mem_ctrls.avgQLat                     24726.00                       # Average queueing delay per DRAM burst
system.mem_ctrls.avgBusLat                    5000.00                       # Average bus latency per DRAM burst
system.mem_ctrls.avgMemAccLat                43476.00                       # Average memory access latency per DRAM burst
system.mem_ctrls.avgRdBW                        59.88                       # Average DRAM read bandwidth in MiByte/s
system.mem_ctrls.avgWrBW                        55.37                       # Average achieved write bandwidth in MiByte/s
system.mem_ctrls.avgRdBWSys                     59.88                       # Average system read bandwidth in MiByte/s
system.mem_ctrls.avgWrBWSys                     55.36                       # Average system write bandwidth in MiByte/s
system.mem_ctrls.peakBW                      12800.00                       # Theoretical peak bandwidth in MiByte/s
system.mem_ctrls.busUtil                         0.90                       # Data bus utilization in percentage
system.mem_ctrls.busUtilRead                     0.47                       # Data bus utilization in percentage for reads
system.mem_ctrls.busUtilWrite                    0.43                       # Data bus utilization in percentage for writes
system.mem_ctrls.avgRdQLen                       1.00                       # Average read queue length when enqueuing
system.mem_ctrls.avgWrQLen                      24.58                       # Average write queue length when enqueuing
system.mem_ctrls.readRowHits                    10380                       # Number of row buffer hits during reads
system.mem_ctrls.writeRowHits                   11163                       # Number of row buffer hits during writes
system.mem_ctrls.readRowHitRate                 72.67                       # Row buffer hit rate for reads
system.mem_ctrls.writeRowHitRate                84.52                       # Row buffer hit rate for writes
system.mem_ctrls.avgGap                     555364.52                       # Average gap between requests
system.mem_ctrls.pageHitRate                    78.36                       # Row buffer hit rate, read and write combined
system.mem_ctrls_0.actEnergy                 18913860                       # Energy for activate commands per rank (pJ)
system.mem_ctrls_0.preEnergy                 10052955                       # Energy for precharge commands per rank (pJ)
system.mem_ctrls_0.readEnergy                52086300                       # Energy for read commands per rank (pJ)
system.mem_ctrls_0.writeEnergy               35031420                       # Energy for write commands per rank (pJ)
system.mem_ctrls_0.refreshEnergy         1116800880.000000                       # Energy for refresh commands per rank (pJ)
system.mem_ctrls_0.actBackEnergy            575718240                       # Energy for active background per rank (pJ)
system.mem_ctrls_0.preBackEnergy             53317920                       # Energy for precharge background per rank (pJ)
system.mem_ctrls_0.actPowerDownEnergy      3493251840                       # Energy for active power-down per rank (pJ)
system.mem_ctrls_0.prePowerDownEnergy      1118870880                       # Energy for precharge power-down per rank (pJ)
system.mem_ctrls_0.selfRefreshEnergy        955101360                       # Energy for self refresh per rank (pJ)
system.mem_ctrls_0.totalEnergy             7429243005                       # Total energy per rank (pJ)
system.mem_ctrls_0.averagePower            486.610045                       # Core power per rank (mW)
system.mem_ctrls_0.totalIdleTime          13865013875                       # Total Idle time Per DRAM Rank
system.mem_ctrls_0.memoryStateTime::IDLE     87558000                       # Time in different power states
system.mem_ctrls_0.memoryStateTime::REF     474238000                       # Time in different power states
system.mem_ctrls_0.memoryStateTime::SREF   3291356750                       # Time in different power states
system.mem_ctrls_0.memoryStateTime::PRE_PDN   2913768750                       # Time in different power states
system.mem_ctrls_0.memoryStateTime::ACT     839932250                       # Time in different power states
system.mem_ctrls_0.memoryStateTime::ACT_PDN   7660490375                       # Time in different power states
system.mem_ctrls_1.actEnergy                 23569140                       # Energy for activate commands per rank (pJ)
system.mem_ctrls_1.preEnergy                 12523500                       # Energy for precharge commands per rank (pJ)
system.mem_ctrls_1.readEnergy                49901460                       # Energy for read commands per rank (pJ)
system.mem_ctrls_1.writeEnergy               33919560                       # Energy for write commands per rank (pJ)
system.mem_ctrls_1.refreshEnergy         1200391920.000000                       # Energy for refresh commands per rank (pJ)
system.mem_ctrls_1.actBackEnergy            762707880                       # Energy for active background per rank (pJ)
system.mem_ctrls_1.preBackEnergy             53647680                       # Energy for precharge background per rank (pJ)
system.mem_ctrls_1.actPowerDownEnergy      3496155420                       # Energy for active power-down per rank (pJ)
system.mem_ctrls_1.prePowerDownEnergy      1354330560                       # Energy for precharge power-down per rank (pJ)
system.mem_ctrls_1.selfRefreshEnergy        709998120                       # Energy for self refresh per rank (pJ)
system.mem_ctrls_1.totalEnergy             7697314560                       # Total energy per rank (pJ)
system.mem_ctrls_1.averagePower            504.168538                       # Core power per rank (mW)
system.mem_ctrls_1.totalIdleTime          13454271125                       # Total Idle time Per DRAM Rank
system.mem_ctrls_1.memoryStateTime::IDLE     88812000                       # Time in different power states
system.mem_ctrls_1.memoryStateTime::REF     509646000                       # Time in different power states
system.mem_ctrls_1.memoryStateTime::SREF   2260736500                       # Time in different power states
system.mem_ctrls_1.memoryStateTime::PRE_PDN   3526960500                       # Time in different power states
system.mem_ctrls_1.memoryStateTime::ACT    1214143750                       # Time in different power states
system.mem_ctrls_1.memoryStateTime::ACT_PDN   7667045375                       # Time in different power states
system.pwrStateResidencyTicks::UNDEFINED  15267344125                       # Cumulative time (in ticks) in various power states
system.cpu0.branchPred.lookups                5252009                       # Number of BP lookups
system.cpu0.branchPred.condPredicted          5252009                       # Number of conditional branches predicted
system.cpu0.branchPred.condIncorrect           105273                       # Number of conditional branches incorrect
system.cpu0.branchPred.BTBLookups             3597362                       # Number of BTB lookups
system.cpu0.branchPred.BTBHits                      0                       # Number of BTB hits
system.cpu0.branchPred.BTBCorrect                   0                       # Number of correct BTB predictions (this stat may not work properly.
system.cpu0.branchPred.BTBHitPct             0.000000                       # BTB Hit Percentage
system.cpu0.branchPred.usedRAS                 730158                       # Number of times the RAS was used to get a target.
system.cpu0.branchPred.RASInCorrect                 0                       # Number of incorrect RAS predictions.
system.cpu0.branchPred.indirectLookups        3597362                       # Number of indirect predictor lookups.
system.cpu0.branchPred.indirectHits           2529615                       # Number of indirect target hits.
system.cpu0.branchPred.indirectMisses         1067747                       # Number of indirect misses.
system.cpu0.branchPredindirectMispredicted            0                       # Number of mispredicted indirect branches.
system.cpu_voltage_domain.voltage                   1                       # Voltage in Volts
system.cpu_clk_domain.clock                       500                       # Clock period in ticks
system.cpu0.dtb.walker.pwrStateResidencyTicks::UNDEFINED  15267344125                       # Cumulative time (in ticks) in various power states
system.cpu0.dtb.rdAccesses                    8915692                       # TLB accesses on read requests
system.cpu0.dtb.wrAccesses                    2104144                       # TLB accesses on write requests
system.cpu0.dtb.rdMisses                          230                       # TLB misses on read requests
system.cpu0.dtb.wrMisses                            0                       # TLB misses on write requests
system.cpu0.apic_clk_domain.clock                8000                       # Clock period in ticks
system.cpu0.interrupts.pwrStateResidencyTicks::UNDEFINED  15267344125                       # Cumulative time (in ticks) in various power states
system.cpu0.itb.walker.pwrStateResidencyTicks::UNDEFINED  15267344125                       # Cumulative time (in ticks) in various power states
system.cpu0.itb.rdAccesses                          0                       # TLB accesses on read requests
system.cpu0.itb.wrAccesses                    6256492                       # TLB accesses on write requests
system.cpu0.itb.rdMisses                            0                       # TLB misses on read requests
system.cpu0.itb.wrMisses                            0                       # TLB misses on write requests
system.cpu0.workload.numSyscalls                    0                       # Number of system calls
system.cpu0.pwrStateResidencyTicks::ON    15267344125                       # Cumulative time (in ticks) in various power states
system.cpu0.numCycles                        30534688                       # number of cpu cycles simulated
system.cpu0.numWorkItemsStarted                     0                       # number of work items this cpu started
system.cpu0.numWorkItemsCompleted                   0                       # number of work items this cpu completed
system.cpu0.fetch.icacheStallCycles           6310727                       # Number of cycles fetch is stalled on an Icache miss
system.cpu0.fetch.Insts                      46260097                       # Number of instructions fetch has processed
system.cpu0.fetch.Branches                    5252009                       # Number of branches that fetch encountered
system.cpu0.fetch.predictedBranches           3259773                       # Number of branches that fetch has predicted taken
system.cpu0.fetch.Cycles                     24118587                       # Number of cycles fetch has run and was not squashing or blocked
system.cpu0.fetch.SquashCycles                 210748                       # Number of cycles fetch has spent squashing
system.cpu0.fetch.CacheLines                  6256492                       # Number of cache lines fetched
system.cpu0.fetch.IcacheSquashes                51116                       # Number of outstanding Icache misses that were squashed
system.cpu0.fetch.rateDist::samples          30534688                       # Number of instructions fetched each cycle (Total)
system.cpu0.fetch.rateDist::mean             2.648304                       # Number of instructions fetched each cycle (Total)
system.cpu0.fetch.rateDist::stdev            3.364020                       # Number of instructions fetched each cycle (Total)
system.cpu0.fetch.rateDist::underflows              0      0.00%      0.00% # Number of instructions fetched each cycle (Total)
system.cpu0.fetch.rateDist::0                16798108     55.01%     55.01% # Number of instructions fetched each cycle (Total)
system.cpu0.fetch.rateDist::1                  721686      2.36%     57.38% # Number of instructions fetched each cycle (Total)
system.cpu0.fetch.rateDist::2                 1656073      5.42%     62.80% # Number of instructions fetched each cycle (Total)
system.cpu0.fetch.rateDist::3                  674834      2.21%     65.01% # Number of instructions fetched each cycle (Total)
system.cpu0.fetch.rateDist::4                  999893      3.27%     68.28% # Number of instructions fetched each cycle (Total)
system.cpu0.fetch.rateDist::5                 1556888      5.10%     73.38% # Number of instructions fetched each cycle (Total)
system.cpu0.fetch.rateDist::6                  573456      1.88%     75.26% # Number of instructions fetched each cycle (Total)
system.cpu0.fetch.rateDist::7                  847939      2.78%     78.04% # Number of instructions fetched each cycle (Total)
system.cpu0.fetch.rateDist::8                 6705811     21.96%    100.00% # Number of instructions fetched each cycle (Total)
system.cpu0.fetch.rateDist::overflows               0      0.00%    100.00% # Number of instructions fetched each cycle (Total)
system.cpu0.fetch.rateDist::min_value               0                       # Number of instructions fetched each cycle (Total)
system.cpu0.fetch.rateDist::max_value               8                       # Number of instructions fetched each cycle (Total)
system.cpu0.fetch.rateDist::total            30534688                       # Number of instructions fetched each cycle (Total)
system.cpu0.fetch.branchRate                 0.172001                       # Number of branch fetches per cycle
system.cpu0.fetch.rate                       1.515001                       # Number of inst fetches per cycle
system.cpu0.decode.IdleCycles                 4082175                       # Number of cycles decode is idle
system.cpu0.decode.BlockedCycles             15849402                       # Number of cycles decode is blocked
system.cpu0.decode.RunCycles                  6112743                       # Number of cycles decode is running
system.cpu0.decode.UnblockCycles              4384994                       # Number of cycles decode is unblocking
system.cpu0.decode.SquashCycles                105374                       # Number of cycles decode is squashing
system.cpu0.decode.DecodedInsts              77432621                       # Number of instructions handled by decode
system.cpu0.rename.SquashCycles                105374                       # Number of cycles rename is squashing
system.cpu0.rename.IdleCycles                 5805720                       # Number of cycles rename is idle
system.cpu0.rename.BlockCycles                5658775                       # Number of cycles rename is blocking
system.cpu0.rename.serializeStallCycles             0                       # count of cycles rename stalled for serializing inst
system.cpu0.rename.RunCycles                  8715661                       # Number of cycles rename is running
system.cpu0.rename.UnblockCycles             10249158                       # Number of cycles rename is unblocking
system.cpu0.rename.RenamedInsts              76934079                       # Number of instructions processed by rename
system.cpu0.rename.ROBFullEvents               216765                       # Number of times rename has blocked due to ROB full
system.cpu0.rename.IQFullEvents               9160972                       # Number of times rename has blocked due to IQ full
system.cpu0.rename.LQFullEvents                     6                       # Number of times rename has blocked due to LQ full
system.cpu0.rename.RenamedOperands           82734044                       # Number of destination operands rename has renamed
system.cpu0.rename.RenameLookups            182784557                       # Number of register rename lookups that rename has made
system.cpu0.rename.int_rename_lookups        60237159                       # Number of integer rename lookups
system.cpu0.rename.fp_rename_lookups         74866770                       # Number of floating rename lookups
system.cpu0.rename.CommittedMaps             70666193                       # Number of HB maps that are committed
system.cpu0.rename.UndoneMaps                12068011                       # Number of HB maps that are undone due to squashing
system.cpu0.rename.serializingInsts                 0                       # count of serializing insts renamed
system.cpu0.rename.tempSerializingInsts             0                       # count of temporary serializing insts renamed
system.cpu0.rename.skidInsts                 23543705                       # count of insts added to the skid buffer
system.cpu0.memDep0.insertedLoads             9489240                       # Number of loads inserted to the mem dependence unit.
system.cpu0.memDep0.insertedStores            2106364                       # Number of stores inserted to the mem dependence unit.
system.cpu0.memDep0.conflictingLoads           426704                       # Number of conflicting loads.
system.cpu0.memDep0.conflictingStores          116446                       # Number of conflicting stores.
system.cpu0.iq.iqInstsAdded                  76286598                       # Number of instructions added to the IQ (excludes non-spec)
system.cpu0.iq.iqInstsIssued                 70801435                       # Number of instructions issued
system.cpu0.iq.iqSquashedInstsExamined       10236188                       # Number of squashed instructions iterated over during squash; mainly for profiling
system.cpu0.iq.iqSquashedOperandsExamined     14764867                       # Number of squashed operands that are examined and possibly removed from graph
system.cpu0.iq.issued_per_cycle::samples     30534688                       # Number of insts issued each cycle
system.cpu0.iq.issued_per_cycle::mean        2.318721                       # Number of insts issued each cycle
system.cpu0.iq.issued_per_cycle::stdev       1.958803                       # Number of insts issued each cycle
system.cpu0.iq.issued_per_cycle::underflows            0      0.00%      0.00% # Number of insts issued each cycle
system.cpu0.iq.issued_per_cycle::0            6314798     20.68%     20.68% # Number of insts issued each cycle
system.cpu0.iq.issued_per_cycle::1            6137093     20.10%     40.78% # Number of insts issued each cycle
system.cpu0.iq.issued_per_cycle::2            5669987     18.57%     59.35% # Number of insts issued each cycle
system.cpu0.iq.issued_per_cycle::3            4842417     15.86%     75.21% # Number of insts issued each cycle
system.cpu0.iq.issued_per_cycle::4            2991948      9.80%     85.01% # Number of insts issued each cycle
system.cpu0.iq.issued_per_cycle::5            1966408      6.44%     91.45% # Number of insts issued each cycle
system.cpu0.iq.issued_per_cycle::6            1606102      5.26%     96.71% # Number of insts issued each cycle
system.cpu0.iq.issued_per_cycle::7             686807      2.25%     98.95% # Number of insts issued each cycle
system.cpu0.iq.issued_per_cycle::8             319128      1.05%    100.00% # Number of insts issued each cycle
system.cpu0.iq.issued_per_cycle::overflows            0      0.00%    100.00% # Number of insts issued each cycle
system.cpu0.iq.issued_per_cycle::min_value            0                       # Number of insts issued each cycle
system.cpu0.iq.issued_per_cycle::max_value            8                       # Number of insts issued each cycle
system.cpu0.iq.issued_per_cycle::total       30534688                       # Number of insts issued each cycle
system.cpu0.iq.fu_full::No_OpClass                  0      0.00%      0.00% # attempts to use FU when none available
system.cpu0.iq.fu_full::IntAlu                     14      0.01%      0.01% # attempts to use FU when none available
system.cpu0.iq.fu_full::IntMult                     0      0.00%      0.01% # attempts to use FU when none available
system.cpu0.iq.fu_full::IntDiv                      0      0.00%      0.01% # attempts to use FU when none available
system.cpu0.iq.fu_full::FloatAdd               102041     99.81%     99.82% # attempts to use FU when none available
system.cpu0.iq.fu_full::FloatCmp                    0      0.00%     99.82% # attempts to use FU when none available
system.cpu0.iq.fu_full::FloatCvt                    0      0.00%     99.82% # attempts to use FU when none available
system.cpu0.iq.fu_full::FloatMult                   0      0.00%     99.82% # attempts to use FU when none available
system.cpu0.iq.fu_full::FloatMultAcc                0      0.00%     99.82% # attempts to use FU when none available
system.cpu0.iq.fu_full::FloatDiv                    0      0.00%     99.82% # attempts to use FU when none available
system.cpu0.iq.fu_full::FloatMisc                   0      0.00%     99.82% # attempts to use FU when none available
system.cpu0.iq.fu_full::FloatSqrt                   0      0.00%     99.82% # attempts to use FU when none available
system.cpu0.iq.fu_full::SimdAdd                     0      0.00%     99.82% # attempts to use FU when none available
system.cpu0.iq.fu_full::SimdAddAcc                  0      0.00%     99.82% # attempts to use FU when none available
system.cpu0.iq.fu_full::SimdAlu                     0      0.00%     99.82% # attempts to use FU when none available
system.cpu0.iq.fu_full::SimdCmp                     0      0.00%     99.82% # attempts to use FU when none available
system.cpu0.iq.fu_full::SimdCvt                     0      0.00%     99.82% # attempts to use FU when none available
system.cpu0.iq.fu_full::SimdMisc                    0      0.00%     99.82% # attempts to use FU when none available
system.cpu0.iq.fu_full::SimdMult                    0      0.00%     99.82% # attempts to use FU when none available
system.cpu0.iq.fu_full::SimdMultAcc                 0      0.00%     99.82% # attempts to use FU when none available
system.cpu0.iq.fu_full::SimdShift                   0      0.00%     99.82% # attempts to use FU when none available
system.cpu0.iq.fu_full::SimdShiftAcc                0      0.00%     99.82% # attempts to use FU when none available
system.cpu0.iq.fu_full::SimdSqrt                    0      0.00%     99.82% # attempts to use FU when none available
system.cpu0.iq.fu_full::SimdFloatAdd                0      0.00%     99.82% # attempts to use FU when none available
system.cpu0.iq.fu_full::SimdFloatAlu                0      0.00%     99.82% # attempts to use FU when none available
system.cpu0.iq.fu_full::SimdFloatCmp                0      0.00%     99.82% # attempts to use FU when none available
system.cpu0.iq.fu_full::SimdFloatCvt                0      0.00%     99.82% # attempts to use FU when none available
system.cpu0.iq.fu_full::SimdFloatDiv                0      0.00%     99.82% # attempts to use FU when none available
system.cpu0.iq.fu_full::SimdFloatMisc               0      0.00%     99.82% # attempts to use FU when none available
system.cpu0.iq.fu_full::SimdFloatMult               0      0.00%     99.82% # attempts to use FU when none available
system.cpu0.iq.fu_full::SimdFloatMultAcc            0      0.00%     99.82% # attempts to use FU when none available
system.cpu0.iq.fu_full::SimdFloatSqrt               0      0.00%     99.82% # attempts to use FU when none available
system.cpu0.iq.fu_full::MemRead                   182      0.18%    100.00% # attempts to use FU when none available
system.cpu0.iq.fu_full::MemWrite                    0      0.00%    100.00% # attempts to use FU when none available
system.cpu0.iq.fu_full::FloatMemRead                0      0.00%    100.00% # attempts to use FU when none available
system.cpu0.iq.fu_full::FloatMemWrite               0      0.00%    100.00% # attempts to use FU when none available
system.cpu0.iq.fu_full::IprAccess                   0      0.00%    100.00% # attempts to use FU when none available
system.cpu0.iq.fu_full::InstPrefetch                0      0.00%    100.00% # attempts to use FU when none available
system.cpu0.iq.FU_type_0::No_OpClass             6220      0.01%      0.01% # Type of FU issued
system.cpu0.iq.FU_type_0::IntAlu             36830483     52.02%     52.03% # Type of FU issued
system.cpu0.iq.FU_type_0::IntMult                   0      0.00%     52.03% # Type of FU issued
system.cpu0.iq.FU_type_0::IntDiv                    0      0.00%     52.03% # Type of FU issued
system.cpu0.iq.FU_type_0::FloatAdd           22969553     32.44%     84.47% # Type of FU issued
system.cpu0.iq.FU_type_0::FloatCmp                  0      0.00%     84.47% # Type of FU issued
system.cpu0.iq.FU_type_0::FloatCvt                  0      0.00%     84.47% # Type of FU issued
system.cpu0.iq.FU_type_0::FloatMult                 0      0.00%     84.47% # Type of FU issued
system.cpu0.iq.FU_type_0::FloatMultAcc              0      0.00%     84.47% # Type of FU issued
system.cpu0.iq.FU_type_0::FloatDiv                  0      0.00%     84.47% # Type of FU issued
system.cpu0.iq.FU_type_0::FloatMisc                 0      0.00%     84.47% # Type of FU issued
system.cpu0.iq.FU_type_0::FloatSqrt                 0      0.00%     84.47% # Type of FU issued
system.cpu0.iq.FU_type_0::SimdAdd                   0      0.00%     84.47% # Type of FU issued
system.cpu0.iq.FU_type_0::SimdAddAcc                0      0.00%     84.47% # Type of FU issued
system.cpu0.iq.FU_type_0::SimdAlu                   0      0.00%     84.47% # Type of FU issued
system.cpu0.iq.FU_type_0::SimdCmp                   0      0.00%     84.47% # Type of FU issued
system.cpu0.iq.FU_type_0::SimdCvt                   0      0.00%     84.47% # Type of FU issued
system.cpu0.iq.FU_type_0::SimdMisc                  0      0.00%     84.47% # Type of FU issued
system.cpu0.iq.FU_type_0::SimdMult                  0      0.00%     84.47% # Type of FU issued
system.cpu0.iq.FU_type_0::SimdMultAcc               0      0.00%     84.47% # Type of FU issued
system.cpu0.iq.FU_type_0::SimdShift                 0      0.00%     84.47% # Type of FU issued
system.cpu0.iq.FU_type_0::SimdShiftAcc              0      0.00%     84.47% # Type of FU issued
system.cpu0.iq.FU_type_0::SimdSqrt                  0      0.00%     84.47% # Type of FU issued
system.cpu0.iq.FU_type_0::SimdFloatAdd              0      0.00%     84.47% # Type of FU issued
system.cpu0.iq.FU_type_0::SimdFloatAlu              0      0.00%     84.47% # Type of FU issued
system.cpu0.iq.FU_type_0::SimdFloatCmp              0      0.00%     84.47% # Type of FU issued
system.cpu0.iq.FU_type_0::SimdFloatCvt              0      0.00%     84.47% # Type of FU issued
system.cpu0.iq.FU_type_0::SimdFloatDiv              0      0.00%     84.47% # Type of FU issued
system.cpu0.iq.FU_type_0::SimdFloatMisc             0      0.00%     84.47% # Type of FU issued
system.cpu0.iq.FU_type_0::SimdFloatMult             0      0.00%     84.47% # Type of FU issued
system.cpu0.iq.FU_type_0::SimdFloatMultAcc            0      0.00%     84.47% # Type of FU issued
system.cpu0.iq.FU_type_0::SimdFloatSqrt             0      0.00%     84.47% # Type of FU issued
system.cpu0.iq.FU_type_0::MemRead             1963323      2.77%     87.24% # Type of FU issued
system.cpu0.iq.FU_type_0::MemWrite            1475957      2.08%     89.33% # Type of FU issued
system.cpu0.iq.FU_type_0::FloatMemRead        6927136      9.78%     99.11% # Type of FU issued
system.cpu0.iq.FU_type_0::FloatMemWrite        628763      0.89%    100.00% # Type of FU issued
system.cpu0.iq.FU_type_0::IprAccess                 0      0.00%    100.00% # Type of FU issued
system.cpu0.iq.FU_type_0::InstPrefetch              0      0.00%    100.00% # Type of FU issued
system.cpu0.iq.FU_type_0::total              70801435                       # Type of FU issued
system.cpu0.iq.rate                          2.318721                       # Inst issue rate
system.cpu0.iq.fu_busy_cnt                     102237                       # FU busy when requested
system.cpu0.iq.fu_busy_rate                  0.001444                       # FU busy rate (busy events/executed inst)
system.cpu0.iq.int_inst_queue_reads          97562706                       # Number of integer instruction queue reads
system.cpu0.iq.int_inst_queue_writes         37420191                       # Number of integer instruction queue writes
system.cpu0.iq.int_inst_queue_wakeup_accesses     33452303                       # Number of integer instruction queue wakeup accesses
system.cpu0.iq.fp_inst_queue_reads           74677092                       # Number of floating instruction queue reads
system.cpu0.iq.fp_inst_queue_writes          49102696                       # Number of floating instruction queue writes
system.cpu0.iq.fp_inst_queue_wakeup_accesses     37145779                       # Number of floating instruction queue wakeup accesses
system.cpu0.iq.vec_inst_queue_reads                 0                       # Number of vector instruction queue reads
system.cpu0.iq.vec_inst_queue_writes                0                       # Number of vector instruction queue writes
system.cpu0.iq.vec_inst_queue_wakeup_accesses            0                       # Number of vector instruction queue wakeup accesses
system.cpu0.iq.int_alu_accesses              33507879                       # Number of integer alu accesses
system.cpu0.iq.fp_alu_accesses               37389573                       # Number of floating point alu accesses
system.cpu0.iq.vec_alu_accesses                     0                       # Number of vector alu accesses
system.cpu0.iew.lsq.thread0.forwLoads          420390                       # Number of loads that had data forwarded from stores
system.cpu0.iew.lsq.thread0.invAddrLoads            0                       # Number of loads ignored due to an invalid address
system.cpu0.iew.lsq.thread0.squashedLoads      1357481                       # Number of loads squashed
system.cpu0.iew.lsq.thread0.ignoredResponses            0                       # Number of memory responses ignored because the instruction is squashed
system.cpu0.iew.lsq.thread0.memOrderViolation          101                       # Number of memory ordering violations
system.cpu0.iew.lsq.thread0.squashedStores         3443                       # Number of stores squashed
system.cpu0.iew.lsq.thread0.invAddrSwpfs            0                       # Number of software prefetches ignored due to an invalid address
system.cpu0.iew.lsq.thread0.blockedLoads            0                       # Number of blocked loads due to partial load-store forwarding
system.cpu0.iew.lsq.thread0.rescheduledLoads            0                       # Number of loads that were rescheduled
system.cpu0.iew.lsq.thread0.cacheBlocked            0                       # Number of times an access to memory failed due to the cache being blocked
system.cpu0.iew.iewIdleCycles                       0                       # Number of cycles IEW is idle
system.cpu0.iew.iewSquashCycles                105374                       # Number of cycles IEW is squashing
system.cpu0.iew.iewBlockCycles                3288037                       # Number of cycles IEW is blocking
system.cpu0.iew.iewUnblockCycles               115382                       # Number of cycles IEW is unblocking
system.cpu0.iew.iewDispatchedInsts           76286598                       # Number of instructions dispatched to IQ
system.cpu0.iew.iewDispSquashedInsts                0                       # Number of squashed instructions skipped by dispatch
system.cpu0.iew.iewDispLoadInsts              9489240                       # Number of dispatched load instructions
system.cpu0.iew.iewDispStoreInsts             2106364                       # Number of dispatched store instructions
system.cpu0.iew.iewDispNonSpecInsts                 0                       # Number of dispatched non-speculative instructions
system.cpu0.iew.iewIQFullEvents                101947                       # Number of times the IQ has become full, causing a stall
system.cpu0.iew.iewLSQFullEvents                    0                       # Number of times the LSQ has become full, causing a stall
system.cpu0.iew.memOrderViolationEvents           101                       # Number of memory order violations
system.cpu0.iew.predictedTakenIncorrect         58130                       # Number of branches that were predicted taken incorrectly
system.cpu0.iew.predictedNotTakenIncorrect        47146                       # Number of branches that were predicted not taken incorrectly
system.cpu0.iew.branchMispredicts              105276                       # Number of branch mispredicts detected at execute
system.cpu0.iew.iewExecutedInsts             70606580                       # Number of executed instructions
system.cpu0.iew.iewExecLoadInsts              8889364                       # Number of load instructions executed
system.cpu0.iew.iewExecSquashedInsts           194858                       # Number of squashed instructions skipped in execute
system.cpu0.iew.exec_swp                            0                       # number of swp insts executed
system.cpu0.iew.exec_nop                            0                       # number of nop insts executed
system.cpu0.iew.exec_refs                    10993508                       # number of memory reference insts executed
system.cpu0.iew.exec_branches                 4724789                       # Number of branches executed
system.cpu0.iew.exec_stores                   2104144                       # Number of stores executed
system.cpu0.iew.exec_rate                    2.312340                       # Inst execution rate
system.cpu0.iew.wb_sent                      70602429                       # cumulative count of insts sent to commit
system.cpu0.iew.wb_count                     70598082                       # cumulative count of insts written-back
system.cpu0.iew.wb_producers                 52571799                       # num instructions producing a value
system.cpu0.iew.wb_consumers                 92572140                       # num instructions consuming a value
system.cpu0.iew.wb_rate                      2.312062                       # insts written-back per cycle
system.cpu0.iew.wb_fanout                    0.567901                       # average fanout of values written-back
system.cpu0.commit.commitSquashedInsts       10236188                       # The number of squashed insts skipped by commit
system.cpu0.commit.branchMispredicts           105273                       # The number of times a branch was mispredicted
system.cpu0.commit.committed_per_cycle::samples     29225424                       # Number of insts commited each cycle
system.cpu0.commit.committed_per_cycle::mean     2.260038                       # Number of insts commited each cycle
system.cpu0.commit.committed_per_cycle::stdev     2.863627                       # Number of insts commited each cycle
system.cpu0.commit.committed_per_cycle::underflows            0      0.00%      0.00% # Number of insts commited each cycle
system.cpu0.commit.committed_per_cycle::0     10937457     37.42%     37.42% # Number of insts commited each cycle
system.cpu0.commit.committed_per_cycle::1      7532289     25.77%     63.20% # Number of insts commited each cycle
system.cpu0.commit.committed_per_cycle::2      1058564      3.62%     66.82% # Number of insts commited each cycle
system.cpu0.commit.committed_per_cycle::3      2916769      9.98%     76.80% # Number of insts commited each cycle
system.cpu0.commit.committed_per_cycle::4      1142130      3.91%     80.71% # Number of insts commited each cycle
system.cpu0.commit.committed_per_cycle::5       217604      0.74%     81.45% # Number of insts commited each cycle
system.cpu0.commit.committed_per_cycle::6       421958      1.44%     82.90% # Number of insts commited each cycle
system.cpu0.commit.committed_per_cycle::7       526678      1.80%     84.70% # Number of insts commited each cycle
system.cpu0.commit.committed_per_cycle::8      4471975     15.30%    100.00% # Number of insts commited each cycle
system.cpu0.commit.committed_per_cycle::overflows            0      0.00%    100.00% # Number of insts commited each cycle
system.cpu0.commit.committed_per_cycle::min_value            0                       # Number of insts commited each cycle
system.cpu0.commit.committed_per_cycle::max_value            8                       # Number of insts commited each cycle
system.cpu0.commit.committed_per_cycle::total     29225424                       # Number of insts commited each cycle
system.cpu0.commit.committedInsts            37204396                       # Number of instructions committed
system.cpu0.commit.committedOps              66050558                       # Number of ops (including micro ops) committed
system.cpu0.commit.swp_count                        0                       # Number of s/w prefetches committed
system.cpu0.commit.refs                      10234707                       # Number of memory references committed
system.cpu0.commit.loads                      8131777                       # Number of loads committed
system.cpu0.commit.membars                          0                       # Number of memory barriers committed
system.cpu0.commit.branches                   4622129                       # Number of branches committed
system.cpu0.commit.vec_insts                        0                       # Number of committed Vector instructions.
system.cpu0.commit.fp_insts                  34153686                       # Number of committed floating point instructions.
system.cpu0.commit.int_insts                 41003059                       # Number of committed integer instructions.
system.cpu0.commit.function_calls              628749                       # Number of function calls committed.
system.cpu0.commit.op_class_0::No_OpClass         6004      0.01%      0.01% # Class of committed instruction
system.cpu0.commit.op_class_0::IntAlu        34331736     51.98%     51.99% # Class of committed instruction
system.cpu0.commit.op_class_0::IntMult              0      0.00%     51.99% # Class of committed instruction
system.cpu0.commit.op_class_0::IntDiv               0      0.00%     51.99% # Class of committed instruction
system.cpu0.commit.op_class_0::FloatAdd      21478111     32.52%     84.50% # Class of committed instruction
system.cpu0.commit.op_class_0::FloatCmp             0      0.00%     84.50% # Class of committed instruction
system.cpu0.commit.op_class_0::FloatCvt             0      0.00%     84.50% # Class of committed instruction
system.cpu0.commit.op_class_0::FloatMult            0      0.00%     84.50% # Class of committed instruction
system.cpu0.commit.op_class_0::FloatMultAcc            0      0.00%     84.50% # Class of committed instruction
system.cpu0.commit.op_class_0::FloatDiv             0      0.00%     84.50% # Class of committed instruction
system.cpu0.commit.op_class_0::FloatMisc            0      0.00%     84.50% # Class of committed instruction
system.cpu0.commit.op_class_0::FloatSqrt            0      0.00%     84.50% # Class of committed instruction
system.cpu0.commit.op_class_0::SimdAdd              0      0.00%     84.50% # Class of committed instruction
system.cpu0.commit.op_class_0::SimdAddAcc            0      0.00%     84.50% # Class of committed instruction
system.cpu0.commit.op_class_0::SimdAlu              0      0.00%     84.50% # Class of committed instruction
system.cpu0.commit.op_class_0::SimdCmp              0      0.00%     84.50% # Class of committed instruction
system.cpu0.commit.op_class_0::SimdCvt              0      0.00%     84.50% # Class of committed instruction
system.cpu0.commit.op_class_0::SimdMisc             0      0.00%     84.50% # Class of committed instruction
system.cpu0.commit.op_class_0::SimdMult             0      0.00%     84.50% # Class of committed instruction
system.cpu0.commit.op_class_0::SimdMultAcc            0      0.00%     84.50% # Class of committed instruction
system.cpu0.commit.op_class_0::SimdShift            0      0.00%     84.50% # Class of committed instruction
system.cpu0.commit.op_class_0::SimdShiftAcc            0      0.00%     84.50% # Class of committed instruction
system.cpu0.commit.op_class_0::SimdSqrt             0      0.00%     84.50% # Class of committed instruction
system.cpu0.commit.op_class_0::SimdFloatAdd            0      0.00%     84.50% # Class of committed instruction
system.cpu0.commit.op_class_0::SimdFloatAlu            0      0.00%     84.50% # Class of committed instruction
system.cpu0.commit.op_class_0::SimdFloatCmp            0      0.00%     84.50% # Class of committed instruction
system.cpu0.commit.op_class_0::SimdFloatCvt            0      0.00%     84.50% # Class of committed instruction
system.cpu0.commit.op_class_0::SimdFloatDiv            0      0.00%     84.50% # Class of committed instruction
system.cpu0.commit.op_class_0::SimdFloatMisc            0      0.00%     84.50% # Class of committed instruction
system.cpu0.commit.op_class_0::SimdFloatMult            0      0.00%     84.50% # Class of committed instruction
system.cpu0.commit.op_class_0::SimdFloatMultAcc            0      0.00%     84.50% # Class of committed instruction
system.cpu0.commit.op_class_0::SimdFloatSqrt            0      0.00%     84.50% # Class of committed instruction
system.cpu0.commit.op_class_0::MemRead        1953747      2.96%     87.46% # Class of committed instruction
system.cpu0.commit.op_class_0::MemWrite       1474177      2.23%     89.69% # Class of committed instruction
system.cpu0.commit.op_class_0::FloatMemRead      6178030      9.35%     99.05% # Class of committed instruction
system.cpu0.commit.op_class_0::FloatMemWrite       628753      0.95%    100.00% # Class of committed instruction
system.cpu0.commit.op_class_0::IprAccess            0      0.00%    100.00% # Class of committed instruction
system.cpu0.commit.op_class_0::InstPrefetch            0      0.00%    100.00% # Class of committed instruction
system.cpu0.commit.op_class_0::total         66050558                       # Class of committed instruction
system.cpu0.commit.bw_lim_events              4471975                       # number cycles where commit BW limit reached
system.cpu0.rob.rob_reads                   101040195                       # The number of ROB reads
system.cpu0.rob.rob_writes                  153882622                       # The number of ROB writes
system.cpu0.committedInsts                   37204396                       # Number of Instructions Simulated
system.cpu0.committedOps                     66050558                       # Number of Ops (including micro ops) Simulated
system.cpu0.cpi                              0.820728                       # CPI: Cycles Per Instruction
system.cpu0.cpi_total                        0.820728                       # CPI: Total CPI of All Threads
system.cpu0.ipc                              1.218431                       # IPC: Instructions Per Cycle
system.cpu0.ipc_total                        1.218431                       # IPC: Total IPC of All Threads
system.cpu0.int_regfile_reads                56241334                       # number of integer regfile reads
system.cpu0.int_regfile_writes               28601651                       # number of integer regfile writes
system.cpu0.fp_regfile_reads                 64764998                       # number of floating regfile reads
system.cpu0.fp_regfile_writes                33278189                       # number of floating regfile writes
system.cpu0.cc_regfile_reads                 20662483                       # number of cc regfile reads
system.cpu0.cc_regfile_writes                13435214                       # number of cc regfile writes
system.cpu0.misc_regfile_reads               24140018                       # number of misc regfile reads
system.cpu0.dcache.tags.pwrStateResidencyTicks::UNDEFINED  15267344125                       # Cumulative time (in ticks) in various power states
system.cpu0.dcache.tags.replacements            14450                       # number of replacements
system.cpu0.dcache.tags.tagsinuse                 512                       # Cycle average of tags in use
system.cpu0.dcache.tags.total_refs            1311718                       # Total number of references to valid blocks.
system.cpu0.dcache.tags.sampled_refs            14450                       # Sample count of references to valid blocks.
system.cpu0.dcache.tags.avg_refs            90.776332                       # Average number of references to valid blocks.
system.cpu0.dcache.tags.warmup_cycle                0                       # Cycle when the warmup percentage was hit.
system.cpu0.dcache.tags.occ_blocks::cpu0.data          512                       # Average occupied blocks per requestor
system.cpu0.dcache.tags.occ_percent::cpu0.data            1                       # Average percentage of cache occupancy
system.cpu0.dcache.tags.occ_percent::total            1                       # Average percentage of cache occupancy
system.cpu0.dcache.tags.occ_task_id_blocks::1024          512                       # Occupied blocks per task id
system.cpu0.dcache.tags.age_task_id_blocks_1024::0           10                       # Occupied blocks per task id
system.cpu0.dcache.tags.age_task_id_blocks_1024::1           84                       # Occupied blocks per task id
system.cpu0.dcache.tags.age_task_id_blocks_1024::2          208                       # Occupied blocks per task id
system.cpu0.dcache.tags.age_task_id_blocks_1024::3            7                       # Occupied blocks per task id
system.cpu0.dcache.tags.age_task_id_blocks_1024::4          203                       # Occupied blocks per task id
system.cpu0.dcache.tags.occ_task_id_percent::1024            1                       # Percentage of cache occupancy per task id
system.cpu0.dcache.tags.tag_accesses         42407378                       # Number of tag accesses
system.cpu0.dcache.tags.data_accesses        42407378                       # Number of data accesses
system.cpu0.dcache.pwrStateResidencyTicks::UNDEFINED  15267344125                       # Cumulative time (in ticks) in various power states
system.cpu0.dcache.ReadReq_hits::cpu0.data      8480702                       # number of ReadReq hits
system.cpu0.dcache.ReadReq_hits::total        8480702                       # number of ReadReq hits
system.cpu0.dcache.WriteReq_hits::cpu0.data      2102930                       # number of WriteReq hits
system.cpu0.dcache.WriteReq_hits::total       2102930                       # number of WriteReq hits
system.cpu0.dcache.demand_hits::cpu0.data     10583632                       # number of demand (read+write) hits
system.cpu0.dcache.demand_hits::total        10583632                       # number of demand (read+write) hits
system.cpu0.dcache.overall_hits::cpu0.data     10583632                       # number of overall hits
system.cpu0.dcache.overall_hits::total       10583632                       # number of overall hits
system.cpu0.dcache.ReadReq_misses::cpu0.data        14600                       # number of ReadReq misses
system.cpu0.dcache.ReadReq_misses::total        14600                       # number of ReadReq misses
system.cpu0.dcache.demand_misses::cpu0.data        14600                       # number of demand (read+write) misses
system.cpu0.dcache.demand_misses::total         14600                       # number of demand (read+write) misses
system.cpu0.dcache.overall_misses::cpu0.data        14600                       # number of overall misses
system.cpu0.dcache.overall_misses::total        14600                       # number of overall misses
system.cpu0.dcache.ReadReq_miss_latency::cpu0.data   1395521000                       # number of ReadReq miss cycles
system.cpu0.dcache.ReadReq_miss_latency::total   1395521000                       # number of ReadReq miss cycles
system.cpu0.dcache.demand_miss_latency::cpu0.data   1395521000                       # number of demand (read+write) miss cycles
system.cpu0.dcache.demand_miss_latency::total   1395521000                       # number of demand (read+write) miss cycles
system.cpu0.dcache.overall_miss_latency::cpu0.data   1395521000                       # number of overall miss cycles
system.cpu0.dcache.overall_miss_latency::total   1395521000                       # number of overall miss cycles
system.cpu0.dcache.ReadReq_accesses::cpu0.data      8495302                       # number of ReadReq accesses(hits+misses)
system.cpu0.dcache.ReadReq_accesses::total      8495302                       # number of ReadReq accesses(hits+misses)
system.cpu0.dcache.WriteReq_accesses::cpu0.data      2102930                       # number of WriteReq accesses(hits+misses)
system.cpu0.dcache.WriteReq_accesses::total      2102930                       # number of WriteReq accesses(hits+misses)
system.cpu0.dcache.demand_accesses::cpu0.data     10598232                       # number of demand (read+write) accesses
system.cpu0.dcache.demand_accesses::total     10598232                       # number of demand (read+write) accesses
system.cpu0.dcache.overall_accesses::cpu0.data     10598232                       # number of overall (read+write) accesses
system.cpu0.dcache.overall_accesses::total     10598232                       # number of overall (read+write) accesses
system.cpu0.dcache.ReadReq_miss_rate::cpu0.data     0.001719                       # miss rate for ReadReq accesses
system.cpu0.dcache.ReadReq_miss_rate::total     0.001719                       # miss rate for ReadReq accesses
system.cpu0.dcache.demand_miss_rate::cpu0.data     0.001378                       # miss rate for demand accesses
system.cpu0.dcache.demand_miss_rate::total     0.001378                       # miss rate for demand accesses
system.cpu0.dcache.overall_miss_rate::cpu0.data     0.001378                       # miss rate for overall accesses
system.cpu0.dcache.overall_miss_rate::total     0.001378                       # miss rate for overall accesses
system.cpu0.dcache.ReadReq_avg_miss_latency::cpu0.data 95583.630137                       # average ReadReq miss latency
system.cpu0.dcache.ReadReq_avg_miss_latency::total 95583.630137                       # average ReadReq miss latency
system.cpu0.dcache.demand_avg_miss_latency::cpu0.data 95583.630137                       # average overall miss latency
system.cpu0.dcache.demand_avg_miss_latency::total 95583.630137                       # average overall miss latency
system.cpu0.dcache.overall_avg_miss_latency::cpu0.data 95583.630137                       # average overall miss latency
system.cpu0.dcache.overall_avg_miss_latency::total 95583.630137                       # average overall miss latency
system.cpu0.dcache.blocked_cycles::no_mshrs            0                       # number of cycles access was blocked
system.cpu0.dcache.blocked_cycles::no_targets            0                       # number of cycles access was blocked
system.cpu0.dcache.blocked::no_mshrs                0                       # number of cycles access was blocked
system.cpu0.dcache.blocked::no_targets              0                       # number of cycles access was blocked
system.cpu0.dcache.avg_blocked_cycles::no_mshrs          nan                       # average number of cycles each access was blocked
system.cpu0.dcache.avg_blocked_cycles::no_targets          nan                       # average number of cycles each access was blocked
system.cpu0.dcache.writebacks::writebacks        13459                       # number of writebacks
system.cpu0.dcache.writebacks::total            13459                       # number of writebacks
system.cpu0.dcache.ReadReq_mshr_hits::cpu0.data          150                       # number of ReadReq MSHR hits
system.cpu0.dcache.ReadReq_mshr_hits::total          150                       # number of ReadReq MSHR hits
system.cpu0.dcache.demand_mshr_hits::cpu0.data          150                       # number of demand (read+write) MSHR hits
system.cpu0.dcache.demand_mshr_hits::total          150                       # number of demand (read+write) MSHR hits
system.cpu0.dcache.overall_mshr_hits::cpu0.data          150                       # number of overall MSHR hits
system.cpu0.dcache.overall_mshr_hits::total          150                       # number of overall MSHR hits
system.cpu0.dcache.ReadReq_mshr_misses::cpu0.data        14450                       # number of ReadReq MSHR misses
system.cpu0.dcache.ReadReq_mshr_misses::total        14450                       # number of ReadReq MSHR misses
system.cpu0.dcache.demand_mshr_misses::cpu0.data        14450                       # number of demand (read+write) MSHR misses
system.cpu0.dcache.demand_mshr_misses::total        14450                       # number of demand (read+write) MSHR misses
[...]
system.l2.tags.age_task_id_blocks_1024::0           10                       # Occupied blocks per task id
system.l2.tags.age_task_id_blocks_1024::1           83                       # Occupied blocks per task id
system.l2.tags.age_task_id_blocks_1024::2          836                       # Occupied blocks per task id
system.l2.tags.age_task_id_blocks_1024::3         8448                       # Occupied blocks per task id
system.l2.tags.age_task_id_blocks_1024::4       121695                       # Occupied blocks per task id
system.l2.tags.occ_task_id_percent::1024            1                       # Percentage of cache occupancy per task id
system.l2.tags.tag_accesses                    245484                       # Number of tag accesses
system.l2.tags.data_accesses                   245484                       # Number of data accesses
system.l2.pwrStateResidencyTicks::UNDEFINED  15267344125                       # Cumulative time (in ticks) in various power states
system.l2.WritebackDirty_hits::writebacks        13459                       # number of WritebackDirty hits
system.l2.WritebackDirty_hits::total            13459                       # number of WritebackDirty hits
system.l2.ReadSharedReq_hits::cpu0.data           166                       # number of ReadSharedReq hits
system.l2.ReadSharedReq_hits::total               166                       # number of ReadSharedReq hits
system.l2.demand_hits::cpu0.data                  166                       # number of demand (read+write) hits
system.l2.demand_hits::total                      166                       # number of demand (read+write) hits
system.l2.overall_hits::cpu0.data                 166                       # number of overall hits
system.l2.overall_hits::total                     166                       # number of overall hits
system.l2.ReadSharedReq_misses::cpu0.data        14284                       # number of ReadSharedReq misses
system.l2.ReadSharedReq_misses::total           14284                       # number of ReadSharedReq misses
system.l2.demand_misses::cpu0.data              14284                       # number of demand (read+write) misses
system.l2.demand_misses::total                  14284                       # number of demand (read+write) misses
system.l2.overall_misses::cpu0.data             14284                       # number of overall misses
system.l2.overall_misses::total                 14284                       # number of overall misses
system.l2.ReadSharedReq_miss_latency::cpu0.data   1350532000                       # number of ReadSharedReq miss cycles
system.l2.ReadSharedReq_miss_latency::total   1350532000                       # number of ReadSharedReq miss cycles
system.l2.demand_miss_latency::cpu0.data   1350532000                       # number of demand (read+write) miss cycles
system.l2.demand_miss_latency::total       1350532000                       # number of demand (read+write) miss cycles
system.l2.overall_miss_latency::cpu0.data   1350532000                       # number of overall miss cycles
system.l2.overall_miss_latency::total      1350532000                       # number of overall miss cycles
system.l2.WritebackDirty_accesses::writebacks        13459                       # number of WritebackDirty accesses(hits+misses)
system.l2.WritebackDirty_accesses::total        13459                       # number of WritebackDirty accesses(hits+misses)
system.l2.ReadSharedReq_accesses::cpu0.data        14450                       # number of ReadSharedReq accesses(hits+misses)
system.l2.ReadSharedReq_accesses::total         14450                       # number of ReadSharedReq accesses(hits+misses)
system.l2.demand_accesses::cpu0.data            14450                       # number of demand (read+write) accesses
system.l2.demand_accesses::total                14450                       # number of demand (read+write) accesses
system.l2.overall_accesses::cpu0.data           14450                       # number of overall (read+write) accesses
system.l2.overall_accesses::total               14450                       # number of overall (read+write) accesses
system.l2.ReadSharedReq_miss_rate::cpu0.data     0.988512                       # miss rate for ReadSharedReq accesses
system.l2.ReadSharedReq_miss_rate::total     0.988512                       # miss rate for ReadSharedReq accesses
system.l2.demand_miss_rate::cpu0.data        0.988512                       # miss rate for demand accesses
system.l2.demand_miss_rate::total            0.988512                       # miss rate for demand accesses
system.l2.overall_miss_rate::cpu0.data       0.988512                       # miss rate for overall accesses
system.l2.overall_miss_rate::total           0.988512                       # miss rate for overall accesses
system.l2.ReadSharedReq_avg_miss_latency::cpu0.data 94548.585830                       # average ReadSharedReq miss latency
system.l2.ReadSharedReq_avg_miss_latency::total 94548.585830                       # average ReadSharedReq miss latency
system.l2.demand_avg_miss_latency::cpu0.data 94548.585830                       # average overall miss latency
system.l2.demand_avg_miss_latency::total 94548.585830                       # average overall miss latency
system.l2.overall_avg_miss_latency::cpu0.data 94548.585830                       # average overall miss latency
system.l2.overall_avg_miss_latency::total 94548.585830                       # average overall miss latency
system.l2.blocked_cycles::no_mshrs                  0                       # number of cycles access was blocked
system.l2.blocked_cycles::no_targets                0                       # number of cycles access was blocked
system.l2.blocked::no_mshrs                         0                       # number of cycles access was blocked
system.l2.blocked::no_targets                       0                       # number of cycles access was blocked
system.l2.avg_blocked_cycles::no_mshrs            nan                       # average number of cycles each access was blocked
system.l2.avg_blocked_cycles::no_targets          nan                       # average number of cycles each access was blocked
system.l2.writebacks::writebacks                13207                       # number of writebacks
system.l2.writebacks::total                     13207                       # number of writebacks
system.l2.CleanEvict_mshr_misses::writebacks            1                       # number of CleanEvict MSHR misses
system.l2.CleanEvict_mshr_misses::total             1                       # number of CleanEvict MSHR misses
system.l2.ReadSharedReq_mshr_misses::cpu0.data        14284                       # number of ReadSharedReq MSHR misses
system.l2.ReadSharedReq_mshr_misses::total        14284                       # number of ReadSharedReq MSHR misses
system.l2.demand_mshr_misses::cpu0.data         14284                       # number of demand (read+write) MSHR misses
system.l2.demand_mshr_misses::total             14284                       # number of demand (read+write) MSHR misses
system.l2.overall_mshr_misses::cpu0.data        14284                       # number of overall MSHR misses
system.l2.overall_mshr_misses::total            14284                       # number of overall MSHR misses
system.l2.ReadSharedReq_mshr_miss_latency::cpu0.data   1207692000                       # number of ReadSharedReq MSHR miss cycles
system.l2.ReadSharedReq_mshr_miss_latency::total   1207692000                       # number of ReadSharedReq MSHR miss cycles
system.l2.demand_mshr_miss_latency::cpu0.data   1207692000                       # number of demand (read+write) MSHR miss cycles
system.l2.demand_mshr_miss_latency::total   1207692000                       # number of demand (read+write) MSHR miss cycles
system.l2.overall_mshr_miss_latency::cpu0.data   1207692000                       # number of overall MSHR miss cycles
system.l2.overall_mshr_miss_latency::total   1207692000                       # number of overall MSHR miss cycles
system.l2.CleanEvict_mshr_miss_rate::writebacks          inf                       # mshr miss rate for CleanEvict accesses
system.l2.CleanEvict_mshr_miss_rate::total          inf                       # mshr miss rate for CleanEvict accesses
system.l2.ReadSharedReq_mshr_miss_rate::cpu0.data     0.988512                       # mshr miss rate for ReadSharedReq accesses
system.l2.ReadSharedReq_mshr_miss_rate::total     0.988512                       # mshr miss rate for ReadSharedReq accesses
system.l2.demand_mshr_miss_rate::cpu0.data     0.988512                       # mshr miss rate for demand accesses
system.l2.demand_mshr_miss_rate::total       0.988512                       # mshr miss rate for demand accesses
system.l2.overall_mshr_miss_rate::cpu0.data     0.988512                       # mshr miss rate for overall accesses
system.l2.overall_mshr_miss_rate::total      0.988512                       # mshr miss rate for overall accesses
system.l2.ReadSharedReq_avg_mshr_miss_latency::cpu0.data 84548.585830                       # average ReadSharedReq mshr miss latency
system.l2.ReadSharedReq_avg_mshr_miss_latency::total 84548.585830                       # average ReadSharedReq mshr miss latency
system.l2.demand_avg_mshr_miss_latency::cpu0.data 84548.585830                       # average overall mshr miss latency
system.l2.demand_avg_mshr_miss_latency::total 84548.585830                       # average overall mshr miss latency
system.l2.overall_avg_mshr_miss_latency::cpu0.data 84548.585830                       # average overall mshr miss latency
system.l2.overall_avg_mshr_miss_latency::total 84548.585830                       # average overall mshr miss latency
system.membus.snoop_filter.tot_requests         28569                       # Total number of requests made to the snoop filter.
system.membus.snoop_filter.hit_single_requests        14285                       # Number of requests hitting in the snoop filter with a single holder of the requested data.
system.membus.snoop_filter.hit_multi_requests            0                       # Number of requests hitting in the snoop filter with multiple (>1) holders of the requested data.
system.membus.snoop_filter.tot_snoops               0                       # Total number of snoops made to the snoop filter.
system.membus.snoop_filter.hit_single_snoops            0                       # Number of snoops hitting in the snoop filter with a single holder of the requested data.
system.membus.snoop_filter.hit_multi_snoops            0                       # Number of snoops hitting in the snoop filter with multiple (>1) holders of the requested data.
system.membus.pwrStateResidencyTicks::UNDEFINED  15267344125                       # Cumulative time (in ticks) in various power states
system.membus.trans_dist::ReadResp              14284                       # Transaction distribution
system.membus.trans_dist::WritebackDirty        13207                       # Transaction distribution
system.membus.trans_dist::CleanEvict             1078                       # Transaction distribution
system.membus.trans_dist::ReadSharedReq         14284                       # Transaction distribution
system.membus.pkt_count_system.l2.mem_side::system.mem_ctrls.port        42853                       # Packet count per connected master and slave (bytes)
system.membus.pkt_count_system.l2.mem_side::total        42853                       # Packet count per connected master and slave (bytes)
system.membus.pkt_count::total                  42853                       # Packet count per connected master and slave (bytes)
system.membus.pkt_size_system.l2.mem_side::system.mem_ctrls.port      1759424                       # Cumulative packet size per connected master and slave (bytes)
system.membus.pkt_size_system.l2.mem_side::total      1759424                       # Cumulative packet size per connected master and slave (bytes)
system.membus.pkt_size::total                 1759424                       # Cumulative packet size per connected master and slave (bytes)
system.membus.snoops                                0                       # Total snoops (count)
system.membus.snoopTraffic                          0                       # Total snoop traffic (bytes)
system.membus.snoop_fanout::samples             14284                       # Request fanout histogram
system.membus.snoop_fanout::mean                    0                       # Request fanout histogram
system.membus.snoop_fanout::stdev                   0                       # Request fanout histogram
system.membus.snoop_fanout::underflows              0      0.00%      0.00% # Request fanout histogram
system.membus.snoop_fanout::0                   14284    100.00%    100.00% # Request fanout histogram
system.membus.snoop_fanout::1                       0      0.00%    100.00% # Request fanout histogram
system.membus.snoop_fanout::overflows               0      0.00%    100.00% # Request fanout histogram
system.membus.snoop_fanout::min_value               0                       # Request fanout histogram
system.membus.snoop_fanout::max_value               0                       # Request fanout histogram
system.membus.snoop_fanout::total               14284                       # Request fanout histogram
system.membus.reqLayer12.occupancy           84933500                       # Layer occupancy (ticks)
system.membus.reqLayer12.utilization              0.6                       # Layer utilization (%)
system.membus.respLayer1.occupancy           76062750                       # Layer occupancy (ticks)
system.membus.respLayer1.utilization              0.5                       # Layer utilization (%)
system.tol2bus.snoop_filter.tot_requests        28900                       # Total number of requests made to the snoop filter.
system.tol2bus.snoop_filter.hit_single_requests        14450                       # Number of requests hitting in the snoop filter with a single holder of the requested data.
system.tol2bus.snoop_filter.hit_multi_requests            0                       # Number of requests hitting in the snoop filter with multiple (>1) holders of the requested data.
system.tol2bus.snoop_filter.tot_snoops              0                       # Total number of snoops made to the snoop filter.
system.tol2bus.snoop_filter.hit_single_snoops            0                       # Number of snoops hitting in the snoop filter with a single holder of the requested data.
system.tol2bus.snoop_filter.hit_multi_snoops            0                       # Number of snoops hitting in the snoop filter with multiple (>1) holders of the requested data.
system.tol2bus.pwrStateResidencyTicks::UNDEFINED  15267344125                       # Cumulative time (in ticks) in various power states
system.tol2bus.trans_dist::ReadResp             14450                       # Transaction distribution
system.tol2bus.trans_dist::WritebackDirty        26666                       # Transaction distribution
system.tol2bus.trans_dist::CleanEvict            2068                       # Transaction distribution
system.tol2bus.trans_dist::ReadSharedReq        14450                       # Transaction distribution
system.tol2bus.pkt_count_system.cpu0.dcache.mem_side::system.l2.cpu_side        43350                       # Packet count per connected master and slave (bytes)
system.tol2bus.pkt_count::total                 43350                       # Packet count per connected master and slave (bytes)
system.tol2bus.pkt_size_system.cpu0.dcache.mem_side::system.l2.cpu_side      1786176                       # Cumulative packet size per connected master and slave (bytes)
system.tol2bus.pkt_size::total                1786176                       # Cumulative packet size per connected master and slave (bytes)
system.tol2bus.snoops                           14284                       # Total snoops (count)
system.tol2bus.snoopTraffic                    845248                       # Total snoop traffic (bytes)
system.tol2bus.snoop_fanout::samples            28734                       # Request fanout histogram
system.tol2bus.snoop_fanout::mean                   0                       # Request fanout histogram
system.tol2bus.snoop_fanout::stdev                  0                       # Request fanout histogram
system.tol2bus.snoop_fanout::underflows             0      0.00%      0.00% # Request fanout histogram
system.tol2bus.snoop_fanout::0                  28734    100.00%    100.00% # Request fanout histogram
system.tol2bus.snoop_fanout::1                      0      0.00%    100.00% # Request fanout histogram
system.tol2bus.snoop_fanout::2                      0      0.00%    100.00% # Request fanout histogram
system.tol2bus.snoop_fanout::3                      0      0.00%    100.00% # Request fanout histogram
system.tol2bus.snoop_fanout::4                      0      0.00%    100.00% # Request fanout histogram
system.tol2bus.snoop_fanout::5                      0      0.00%    100.00% # Request fanout histogram
system.tol2bus.snoop_fanout::6                      0      0.00%    100.00% # Request fanout histogram
system.tol2bus.snoop_fanout::7                      0      0.00%    100.00% # Request fanout histogram
system.tol2bus.snoop_fanout::8                      0      0.00%    100.00% # Request fanout histogram
system.tol2bus.snoop_fanout::9                      0      0.00%    100.00% # Request fanout histogram
system.tol2bus.snoop_fanout::10                     0      0.00%    100.00% # Request fanout histogram
system.tol2bus.snoop_fanout::11                     0      0.00%    100.00% # Request fanout histogram
system.tol2bus.snoop_fanout::12                     0      0.00%    100.00% # Request fanout histogram
system.tol2bus.snoop_fanout::13                     0      0.00%    100.00% # Request fanout histogram
system.tol2bus.snoop_fanout::14                     0      0.00%    100.00% # Request fanout histogram
system.tol2bus.snoop_fanout::15                     0      0.00%    100.00% # Request fanout histogram
system.tol2bus.snoop_fanout::16                     0      0.00%    100.00% # Request fanout histogram
system.tol2bus.snoop_fanout::17                     0      0.00%    100.00% # Request fanout histogram
system.tol2bus.snoop_fanout::18                     0      0.00%    100.00% # Request fanout histogram
system.tol2bus.snoop_fanout::19                     0      0.00%    100.00% # Request fanout histogram
system.tol2bus.snoop_fanout::20                     0      0.00%    100.00% # Request fanout histogram
system.tol2bus.snoop_fanout::21                     0      0.00%    100.00% # Request fanout histogram
system.tol2bus.snoop_fanout::22                     0      0.00%    100.00% # Request fanout histogram
system.tol2bus.snoop_fanout::23                     0      0.00%    100.00% # Request fanout histogram
system.tol2bus.snoop_fanout::24                     0      0.00%    100.00% # Request fanout histogram
system.tol2bus.snoop_fanout::overflows              0      0.00%    100.00% # Request fanout histogram
system.tol2bus.snoop_fanout::min_value              0                       # Request fanout histogram
system.tol2bus.snoop_fanout::max_value              0                       # Request fanout histogram
system.tol2bus.snoop_fanout::total              28734                       # Request fanout histogram
system.tol2bus.reqLayer0.occupancy           27909000                       # Layer occupancy (ticks)
system.tol2bus.reqLayer0.utilization              0.2                       # Layer utilization (%)
system.tol2bus.respLayer1.occupancy          21675000                       # Layer occupancy (ticks)
system.tol2bus.respLayer1.utilization             0.1                       # Layer utilization (%)

---------- End Simulation Statistics   ----------
