
---------- Begin Simulation Statistics ----------
sim_seconds                                  0.015267                       # Number of seconds simulated
sim_ticks                                 15267344125                       # Number of ticks simulated
final_tick                               3740499310625                       # Number of ticks from beginning of simulation (restored from checkpoints and never reset)
sim_freq                                 1000000000000                       # Frequency of simulated ticks
host_inst_rate                               50439747                       # Simulator instruction rate (inst/s)
host_op_rate                                 93891986                       # Simulator op (including micro ops) rate (op/s)
host_tick_rate                              129933129                       # Simulator tick rate (ticks/s)
host_mem_usage                                3428828                       # Number of bytes of host memory used
host_seconds                                   117.50                       # Real time elapsed on the host
sim_insts                                  5926746537                       # Number of instructions simulated
sim_ops                                   11032452248                       # Number of ops (including micro ops) simulated
system.voltage_domain.voltage                       1                       # Voltage in Volts
system.clk_domain.clock                          1000                       # Clock period in ticks
system.mem_ctrls.pwrStateResidencyTicks::UNDEFINED  15267344125                       # Cumulative time (in ticks) in various power states
system.mem_ctrls.bytes_read::cpu0.inst            128                       # Number of bytes read from this memory
system.mem_ctrls.bytes_read::cpu0.data        4961024                       # Number of bytes read from this memory
system.mem_ctrls.bytes_read::total            4961152                       # Number of bytes read from this memory
system.mem_ctrls.bytes_inst_read::cpu0.inst          128                       # Number of instructions bytes read from this memory
system.mem_ctrls.bytes_inst_read::total           128                       # Number of instructions bytes read from this memory
system.mem_ctrls.bytes_written::writebacks       424128                       # Number of bytes written to this memory
system.mem_ctrls.bytes_written::total          424128                       # Number of bytes written to this memory
system.mem_ctrls.num_reads::cpu0.inst               2                       # Number of read requests responded to by this memory
system.mem_ctrls.num_reads::cpu0.data           77516                       # Number of read requests responded to by this memory
system.mem_ctrls.num_reads::total               77518                       # Number of read requests responded to by this memory
system.mem_ctrls.num_writes::writebacks          6627                       # Number of write requests responded to by this memory
system.mem_ctrls.num_writes::total               6627                       # Number of write requests responded to by this memory
system.mem_ctrls.bw_read::cpu0.inst              8384                       # Total read bandwidth from this memory (bytes/s)
system.mem_ctrls.bw_read::cpu0.data         324943485                       # Total read bandwidth from this memory (bytes/s)
system.mem_ctrls.bw_read::total             324951868                       # Total read bandwidth from this memory (bytes/s)
system.mem_ctrls.bw_inst_read::cpu0.inst         8384                       # Instruction read bandwidth from this memory (bytes/s)
system.mem_ctrls.bw_inst_read::total             8384                       # Instruction read bandwidth from this memory (bytes/s)
system.mem_ctrls.bw_write::writebacks        27780077                       # Write bandwidth from this memory (bytes/s)
system.mem_ctrls.bw_write::total             27780077                       # Write bandwidth from this memory (bytes/s)
system.mem_ctrls.bw_total::writebacks        27780077                       # Total bandwidth to/from this memory (bytes/s)
system.mem_ctrls.bw_total::cpu0.inst             8384                       # Total bandwidth to/from this memory (bytes/s)
system.mem_ctrls.bw_total::cpu0.data        324943485                       # Total bandwidth to/from this memory (bytes/s)
system.mem_ctrls.bw_total::total            352731946                       # Total bandwidth to/from this memory (bytes/s)
system.mem_ctrls.readReqs                       77518                       # Number of read requests accepted
system.mem_ctrls.writeReqs                       6627                       # Number of write requests accepted
system.mem_ctrls.readBursts                     77518                       # Number of DRAM read bursts, including those serviced by the write queue
system.mem_ctrls.writeBursts                     6627                       # Number of DRAM write bursts, including those merged in the write queue
system.mem_ctrls.bytesReadDRAM                4946112                       # Total number of bytes read from DRAM
system.mem_ctrls.bytesReadWrQ                   15040                       # Total number of bytes read from write queue
system.mem_ctrls.bytesWritten                  424704                       # Total number of bytes written to DRAM
system.mem_ctrls.bytesReadSys                 4961152                       # Total read bytes from the system interface side
system.mem_ctrls.bytesWrittenSys               424128                       # Total written bytes from the system interface side
system.mem_ctrls.servicedByWrQ                    235                       # Number of DRAM read bursts serviced by the write queue
system.mem_ctrls.mergedWrBursts                     0                       # Number of DRAM write bursts merged with an existing one
system.mem_ctrls.neitherReadNorWriteReqs            0                       # Number of requests that are neither read nor write
system.mem_ctrls.perBankRdBursts::0              4235                       # Per bank write bursts
system.mem_ctrls.perBankRdBursts::1              3983                       # Per bank write bursts
system.mem_ctrls.perBankRdBursts::2              4395                       # Per bank write bursts
system.mem_ctrls.perBankRdBursts::3              5721                       # Per bank write bursts
system.mem_ctrls.perBankRdBursts::4              6133                       # Per bank write bursts
system.mem_ctrls.perBankRdBursts::5              5789                       # Per bank write bursts
system.mem_ctrls.perBankRdBursts::6              5772                       # Per bank write bursts
system.mem_ctrls.perBankRdBursts::7              4801                       # Per bank write bursts
system.mem_ctrls.perBankRdBursts::8              4904                       # Per bank write bursts
system.mem_ctrls.perBankRdBursts::9              4570                       # Per bank write bursts
system.mem_ctrls.perBankRdBursts::10             4477                       # Per bank write bursts
system.mem_ctrls.perBankRdBursts::11             4525                       # Per bank write bursts
system.mem_ctrls.perBankRdBursts::12             4564                       # Per bank write bursts
system.mem_ctrls.perBankRdBursts::13             4537                       # Per bank write bursts
system.mem_ctrls.perBankRdBursts::14             4625                       # Per bank write bursts
system.mem_ctrls.perBankRdBursts::15             4252                       # Per bank write bursts
system.mem_ctrls.perBankWrBursts::0               329                       # Per bank write bursts
system.mem_ctrls.perBankWrBursts::1               214                       # Per bank write bursts
system.mem_ctrls.perBankWrBursts::2               257                       # Per bank write bursts
system.mem_ctrls.perBankWrBursts::3               341                       # Per bank write bursts
system.mem_ctrls.perBankWrBursts::4               392                       # Per bank write bursts
system.mem_ctrls.perBankWrBursts::5               457                       # Per bank write bursts
system.mem_ctrls.perBankWrBursts::6               550                       # Per bank write bursts
system.mem_ctrls.perBankWrBursts::7               503                       # Per bank write bursts
system.mem_ctrls.perBankWrBursts::8               552                       # Per bank write bursts
system.mem_ctrls.perBankWrBursts::9               432                       # Per bank write bursts
system.mem_ctrls.perBankWrBursts::10              377                       # Per bank write bursts
system.mem_ctrls.perBankWrBursts::11              370                       # Per bank write bursts
system.mem_ctrls.perBankWrBursts::12              415                       # Per bank write bursts
system.mem_ctrls.perBankWrBursts::13              436                       # Per bank write bursts
system.mem_ctrls.perBankWrBursts::14              578                       # Per bank write bursts
system.mem_ctrls.perBankWrBursts::15              433                       # Per bank write bursts
system.mem_ctrls.numRdRetry                         0                       # Number of times read queue was full causing retry
system.mem_ctrls.numWrRetry                         0                       # Number of times write queue was full causing retry
system.mem_ctrls.totGap                   15267178000                       # Total gap between requests
system.mem_ctrls.readPktSize::0                     0                       # Read request sizes (log2)
system.mem_ctrls.readPktSize::1                     0                       # Read request sizes (log2)
system.mem_ctrls.readPktSize::2                     0                       # Read request sizes (log2)
system.mem_ctrls.readPktSize::3                     0                       # Read request sizes (log2)
system.mem_ctrls.readPktSize::4                     0                       # Read request sizes (log2)
system.mem_ctrls.readPktSize::5                     0                       # Read request sizes (log2)
system.mem_ctrls.readPktSize::6                 77518                       # Read request sizes (log2)
system.mem_ctrls.writePktSize::0                    0                       # Write request sizes (log2)
system.mem_ctrls.writePktSize::1                    0                       # Write request sizes (log2)
system.mem_ctrls.writePktSize::2                    0                       # Write request sizes (log2)
system.mem_ctrls.writePktSize::3                    0                       # Write request sizes (log2)
system.mem_ctrls.writePktSize::4                    0                       # Write request sizes (log2)
system.mem_ctrls.writePktSize::5                    0                       # Write request sizes (log2)
system.mem_ctrls.writePktSize::6                 6627                       # Write request sizes (log2)
system.mem_ctrls.rdQLenPdf::0                   63644                       # What read queue length does an incoming req see
system.mem_ctrls.rdQLenPdf::1                   12549                       # What read queue length does an incoming req see
system.mem_ctrls.rdQLenPdf::2                    1041                       # What read queue length does an incoming req see
system.mem_ctrls.rdQLenPdf::3                      49                       # What read queue length does an incoming req see
system.mem_ctrls.rdQLenPdf::4                       0                       # What read queue length does an incoming req see
system.mem_ctrls.rdQLenPdf::5                       0                       # What read queue length does an incoming req see
system.mem_ctrls.rdQLenPdf::6                       0                       # What read queue length does an incoming req see
system.mem_ctrls.rdQLenPdf::7                       0                       # What read queue length does an incoming req see
system.mem_ctrls.rdQLenPdf::8                       0                       # What read queue length does an incoming req see
system.mem_ctrls.rdQLenPdf::9                       0                       # What read queue length does an incoming req see
system.mem_ctrls.rdQLenPdf::10                      0                       # What read queue length does an incoming req see
system.mem_ctrls.rdQLenPdf::11                      0                       # What read queue length does an incoming req see
system.mem_ctrls.rdQLenPdf::12                      0                       # What read queue length does an incoming req see
system.mem_ctrls.rdQLenPdf::13                      0                       # What read queue length does an incoming req see
system.mem_ctrls.rdQLenPdf::14                      0                       # What read queue length does an incoming req see
system.mem_ctrls.rdQLenPdf::15                      0                       # What read queue length does an incoming req see
system.mem_ctrls.rdQLenPdf::16                      0                       # What read queue length does an incoming req see
system.mem_ctrls.rdQLenPdf::17                      0                       # What read queue length does an incoming req see
system.mem_ctrls.rdQLenPdf::18                      0                       # What read queue length does an incoming req see
system.mem_ctrls.rdQLenPdf::19                      0                       # What read queue length does an incoming req see
system.mem_ctrls.rdQLenPdf::20                      0                       # What read queue length does an incoming req see
system.mem_ctrls.rdQLenPdf::21                      0                       # What read queue length does an incoming req see
system.mem_ctrls.rdQLenPdf::22                      0                       # What read queue length does an incoming req see
system.mem_ctrls.rdQLenPdf::23                      0                       # What read queue length does an incoming req see
system.mem_ctrls.rdQLenPdf::24                      0                       # What read queue length does an incoming req see
system.mem_ctrls.rdQLenPdf::25                      0                       # What read queue length does an incoming req see
system.mem_ctrls.rdQLenPdf::26                      0                       # What read queue length does an incoming req see
system.mem_ctrls.rdQLenPdf::27                      0                       # What read queue length does an incoming req see
system.mem_ctrls.rdQLenPdf::28                      0                       # What read queue length does an incoming req see
system.mem_ctrls.rdQLenPdf::29                      0                       # What read queue length does an incoming req see
system.mem_ctrls.rdQLenPdf::30                      0                       # What read queue length does an incoming req see
system.mem_ctrls.rdQLenPdf::31                      0                       # What read queue length does an incoming req see
system.mem_ctrls.wrQLenPdf::0                       0                       # What write queue length does an incoming req see
system.mem_ctrls.wrQLenPdf::1                       0                       # What write queue length does an incoming req see
system.mem_ctrls.wrQLenPdf::2                       0                       # What write queue length does an incoming req see
system.mem_ctrls.wrQLenPdf::3                       0                       # What write queue length does an incoming req see
system.mem_ctrls.wrQLenPdf::4                       0                       # What write queue length does an incoming req see
system.mem_ctrls.wrQLenPdf::5                       0                       # What write queue length does an incoming req see
system.mem_ctrls.wrQLenPdf::6                       0                       # What write queue length does an incoming req see
system.mem_ctrls.wrQLenPdf::7                       0                       # What write queue length does an incoming req see
system.mem_ctrls.wrQLenPdf::8                       0                       # What write queue length does an incoming req see
system.mem_ctrls.wrQLenPdf::9                       0                       # What write queue length does an incoming req see
system.mem_ctrls.wrQLenPdf::10                      0                       # What write queue length does an incoming req see
system.mem_ctrls.wrQLenPdf::11                      0                       # What write queue length does an incoming req see
system.mem_ctrls.wrQLenPdf::12                      0                       # What write queue length does an incoming req see
system.mem_ctrls.wrQLenPdf::13                      0                       # What write queue length does an incoming req see
system.mem_ctrls.wrQLenPdf::14                      0                       # What write queue length does an incoming req see
system.mem_ctrls.wrQLenPdf::15                    117                       # What write queue length does an incoming req see
system.mem_ctrls.wrQLenPdf::16                    122                       # What write queue length does an incoming req see
system.mem_ctrls.wrQLenPdf::17                    373                       # What write queue length does an incoming req see
system.mem_ctrls.wrQLenPdf::18                    399                       # What write queue length does an incoming req see
system.mem_ctrls.wrQLenPdf::19                    399                       # What write queue length does an incoming req see
system.mem_ctrls.wrQLenPdf::20                    398                       # What write queue length does an incoming req see
system.mem_ctrls.wrQLenPdf::21                    398                       # What write queue length does an incoming req see
system.mem_ctrls.wrQLenPdf::22                    399                       # What write queue length does an incoming req see
system.mem_ctrls.wrQLenPdf::23                    400                       # What write queue length does an incoming req see
system.mem_ctrls.wrQLenPdf::24                    400                       # What write queue length does an incoming req see
system.mem_ctrls.wrQLenPdf::25                    398                       # What write queue length does an incoming req see
system.mem_ctrls.wrQLenPdf::26                    401                       # What write queue length does an incoming req see
system.mem_ctrls.wrQLenPdf::27                    403                       # What write queue length does an incoming req see
system.mem_ctrls.wrQLenPdf::28                    402                       # What write queue length does an incoming req see
system.mem_ctrls.wrQLenPdf::29                    409                       # What write queue length does an incoming req see
system.mem_ctrls.wrQLenPdf::30                    406                       # What write queue length does an incoming req see
system.mem_ctrls.wrQLenPdf::31                    401                       # What write queue length does an incoming req see
system.mem_ctrls.wrQLenPdf::32                    402                       # What write queue length does an incoming req see
system.mem_ctrls.wrQLenPdf::33                      0                       # What write queue length does an incoming req see
system.mem_ctrls.wrQLenPdf::34                      0                       # What write queue length does an incoming req see
system.mem_ctrls.wrQLenPdf::35                      0                       # What write queue length does an incoming req see
system.mem_ctrls.wrQLenPdf::36                      0                       # What write queue length does an incoming req see
system.mem_ctrls.wrQLenPdf::37                      0                       # What write queue length does an incoming req see
system.mem_ctrls.wrQLenPdf::38                      0                       # What write queue length does an incoming req see
system.mem_ctrls.wrQLenPdf::39                      0                       # What write queue length does an incoming req see
system.mem_ctrls.wrQLenPdf::40                      0                       # What write queue length does an incoming req see
system.mem_ctrls.wrQLenPdf::41                      0                       # What write queue length does an incoming req see
system.mem_ctrls.wrQLenPdf::42                      0                       # What write queue length does an incoming req see
system.mem_ctrls.wrQLenPdf::43                      0                       # What write queue length does an incoming req see
system.mem_ctrls.wrQLenPdf::44                      0                       # What write queue length does an incoming req see
system.mem_ctrls.wrQLenPdf::45                      0                       # What write queue length does an incoming req see
system.mem_ctrls.wrQLenPdf::46                      0                       # What write queue length does an incoming req see
system.mem_ctrls.wrQLenPdf::47                      0                       # What write queue length does an incoming req see
system.mem_ctrls.wrQLenPdf::48                      0                       # What write queue length does an incoming req see
system.mem_ctrls.wrQLenPdf::49                      0                       # What write queue length does an incoming req see
system.mem_ctrls.wrQLenPdf::50                      0                       # What write queue length does an incoming req see
system.mem_ctrls.wrQLenPdf::51                      0                       # What write queue length does an incoming req see
system.mem_ctrls.wrQLenPdf::52                      0                       # What write queue length does an incoming req see
system.mem_ctrls.wrQLenPdf::53                      0                       # What write queue length does an incoming req see
system.mem_ctrls.wrQLenPdf::54                      0                       # What write queue length does an incoming req see
system.mem_ctrls.wrQLenPdf::55                      0                       # What write queue length does an incoming req see
system.mem_ctrls.wrQLenPdf::56                      0                       # What write queue length does an incoming req see
system.mem_ctrls.wrQLenPdf::57                      0                       # What write queue length does an incoming req see
system.mem_ctrls.wrQLenPdf::58                      0                       # What write queue length does an incoming req see
system.mem_ctrls.wrQLenPdf::59                      0                       # What write queue length does an incoming req see
system.mem_ctrls.wrQLenPdf::60                      0                       # What write queue length does an incoming req see
system.mem_ctrls.wrQLenPdf::61                      0                       # What write queue length does an incoming req see
system.mem_ctrls.wrQLenPdf::62                      0                       # What write queue length does an incoming req see
system.mem_ctrls.wrQLenPdf::63                      0                       # What write queue length does an incoming req see
system.mem_ctrls.bytesPerActivate::samples        61275                       # Bytes accessed per row activation
system.mem_ctrls.bytesPerActivate::mean     87.654149                       # Bytes accessed per row activation
system.mem_ctrls.bytesPerActivate::gmean    80.034602                       # Bytes accessed per row activation
system.mem_ctrls.bytesPerActivate::stdev    45.483035                       # Bytes accessed per row activation
system.mem_ctrls.bytesPerActivate::64-127        44788     73.09%     73.09% # Bytes accessed per row activation
system.mem_ctrls.bytesPerActivate::128-191        11984     19.56%     92.65% # Bytes accessed per row activation
system.mem_ctrls.bytesPerActivate::192-255         3263      5.33%     97.98% # Bytes accessed per row activation
system.mem_ctrls.bytesPerActivate::256-319          907      1.48%     99.46% # Bytes accessed per row activation
system.mem_ctrls.bytesPerActivate::320-383          263      0.43%     99.89% # Bytes accessed per row activation
system.mem_ctrls.bytesPerActivate::384-447           59      0.10%     99.98% # Bytes accessed per row activation
system.mem_ctrls.bytesPerActivate::448-511            8      0.01%    100.00% # Bytes accessed per row activation
system.mem_ctrls.bytesPerActivate::512-575            3      0.00%    100.00% # Bytes accessed per row activation
system.mem_ctrls.bytesPerActivate::total        61275                       # Bytes accessed per row activation
system.mem_ctrls.rdPerTurnAround::samples          399                       # Reads before turning the bus around for writes
system.mem_ctrls.rdPerTurnAround::mean     194.092732                       # Reads before turning the bus around for writes
system.mem_ctrls.rdPerTurnAround::gmean    184.815924                       # Reads before turning the bus around for writes
system.mem_ctrls.rdPerTurnAround::stdev     58.602562                       # Reads before turning the bus around for writes
system.mem_ctrls.rdPerTurnAround::48-63             2      0.50%      0.50% # Reads before turning the bus around for writes
system.mem_ctrls.rdPerTurnAround::64-79             3      0.75%      1.25% # Reads before turning the bus around for writes
system.mem_ctrls.rdPerTurnAround::80-95            11      2.76%      4.01% # Reads before turning the bus around for writes
system.mem_ctrls.rdPerTurnAround::96-111           16      4.01%      8.02% # Reads before turning the bus around for writes
system.mem_ctrls.rdPerTurnAround::112-127           23      5.76%     13.78% # Reads before turning the bus around for writes
system.mem_ctrls.rdPerTurnAround::128-143           18      4.51%     18.30% # Reads before turning the bus around for writes
system.mem_ctrls.rdPerTurnAround::144-159           39      9.77%     28.07% # Reads before turning the bus around for writes
system.mem_ctrls.rdPerTurnAround::160-175           40     10.03%     38.10% # Reads before turning the bus around for writes
system.mem_ctrls.rdPerTurnAround::176-191           50     12.53%     50.63% # Reads before turning the bus around for writes
system.mem_ctrls.rdPerTurnAround::192-207           43     10.78%     61.40% # Reads before turning the bus around for writes
system.mem_ctrls.rdPerTurnAround::208-223           37      9.27%     70.68% # Reads before turning the bus around for writes
system.mem_ctrls.rdPerTurnAround::224-239           32      8.02%     78.70% # Reads before turning the bus around for writes
system.mem_ctrls.rdPerTurnAround::240-255           27      6.77%     85.46% # Reads before turning the bus around for writes
system.mem_ctrls.rdPerTurnAround::256-271           16      4.01%     89.47% # Reads before turning the bus around for writes
system.mem_ctrls.rdPerTurnAround::272-287           19      4.76%     94.24% # Reads before turning the bus around for writes
system.mem_ctrls.rdPerTurnAround::288-303            6      1.50%     95.74% # Reads before turning the bus around for writes
system.mem_ctrls.rdPerTurnAround::304-319            5      1.25%     96.99% # Reads before turning the bus around for writes
system.mem_ctrls.rdPerTurnAround::320-335            6      1.50%     98.50% # Reads before turning the bus around for writes
system.mem_ctrls.rdPerTurnAround::336-351            4      1.00%     99.50% # Reads before turning the bus around for writes
system.mem_ctrls.rdPerTurnAround::352-367            1      0.25%     99.75% # Reads before turning the bus around for writes
system.mem_ctrls.rdPerTurnAround::368-383            1      0.25%    100.00% # Reads before turning the bus around for writes
system.mem_ctrls.rdPerTurnAround::total           399                       # Reads before turning the bus around for writes
system.mem_ctrls.wrPerTurnAround::samples          399                       # Writes before turning the bus around for reads
system.mem_ctrls.wrPerTurnAround::mean      16.631579                       # Writes before turning the bus around for reads
system.mem_ctrls.wrPerTurnAround::gmean     16.603955                       # Writes before turning the bus around for reads
system.mem_ctrls.wrPerTurnAround::stdev      0.978207                       # Writes before turning the bus around for reads
system.mem_ctrls.wrPerTurnAround::16              277     69.42%     69.42% # Writes before turning the bus around for reads
system.mem_ctrls.wrPerTurnAround::17                5      1.25%     70.68% # Writes before turning the bus around for reads
system.mem_ctrls.wrPerTurnAround::18              105     26.32%     96.99% # Writes before turning the bus around for reads
system.mem_ctrls.wrPerTurnAround::19               11      2.76%     99.75% # Writes before turning the bus around for reads
system.mem_ctrls.wrPerTurnAround::20                1      0.25%    100.00% # Writes before turning the bus around for reads
system.mem_ctrls.wrPerTurnAround::total           399                       # Writes before turning the bus around for reads
system.mem_ctrls.totQLat                   2294909500                       # Total ticks spent queuing
system.mem_ctrls.totMemAccLat              3743965750                       # Total ticks spent from burst creation until serviced by the DRAM
system.mem_ctrls.totBusLat                  386415000                       # Total ticks spent in databus transfers
system.mem_ctrls.avgQLat                     29694.88                       # Average queueing delay per DRAM burst
system.mem_ctrls.avgBusLat                    5000.00                       # Average bus latency per DRAM burst
system.mem_ctrls.avgMemAccLat                48444.88                       # Average memory access latency per DRAM burst
system.mem_ctrls.avgRdBW                       323.97                       # Average DRAM read bandwidth in MiByte/s
system.mem_ctrls.avgWrBW                        27.82                       # Average achieved write bandwidth in MiByte/s
system.mem_ctrls.avgRdBWSys                    324.95                       # Average system read bandwidth in MiByte/s
system.mem_ctrls.avgWrBWSys                     27.78                       # Average system write bandwidth in MiByte/s
system.mem_ctrls.peakBW                      12800.00                       # Theoretical peak bandwidth in MiByte/s
system.mem_ctrls.busUtil                         2.75                       # Data bus utilization in percentage
system.mem_ctrls.busUtilRead                     2.53                       # Data bus utilization in percentage for reads
system.mem_ctrls.busUtilWrite                    0.22                       # Data bus utilization in percentage for writes
system.mem_ctrls.avgRdQLen                       1.13                       # Average read queue length when enqueuing
system.mem_ctrls.avgWrQLen                      24.99                       # Average write queue length when enqueuing
system.mem_ctrls.readRowHits                    21209                       # Number of row buffer hits during reads
system.mem_ctrls.writeRowHits                    1439                       # Number of row buffer hits during writes
system.mem_ctrls.readRowHitRate                 27.44                       # Row buffer hit rate for reads
system.mem_ctrls.writeRowHitRate                21.71                       # Row buffer hit rate for writes
system.mem_ctrls.avgGap                     181438.92                       # Average gap between requests
system.mem_ctrls.pageHitRate                    26.99                       # Row buffer hit rate, read and write combined
system.mem_ctrls_0.actEnergy                229565280                       # Energy for activate commands per rank (pJ)
system.mem_ctrls_0.preEnergy                122024430                       # Energy for precharge commands per rank (pJ)
system.mem_ctrls_0.readEnergy               291519060                       # Energy for read commands per rank (pJ)
system.mem_ctrls_0.writeEnergy               15884460                       # Energy for write commands per rank (pJ)
system.mem_ctrls_0.refreshEnergy         1220060400.000000                       # Energy for refresh commands per rank (pJ)
system.mem_ctrls_0.actBackEnergy           1008463380                       # Energy for active background per rank (pJ)
system.mem_ctrls_0.preBackEnergy             34390080                       # Energy for precharge background per rank (pJ)
system.mem_ctrls_0.actPowerDownEnergy      4729361250                       # Energy for active power-down per rank (pJ)
system.mem_ctrls_0.prePowerDownEnergy       782095680                       # Energy for precharge power-down per rank (pJ)
system.mem_ctrls_0.selfRefreshEnergy        190279680                       # Energy for self refresh per rank (pJ)
system.mem_ctrls_0.totalEnergy             8624058000                       # Total energy per rank (pJ)
system.mem_ctrls_0.averagePower            564.869563                       # Core power per rank (mW)
system.mem_ctrls_0.totalIdleTime          12964163500                       # Total Idle time Per DRAM Rank
system.mem_ctrls_0.memoryStateTime::IDLE     36594000                       # Time in different power states
system.mem_ctrls_0.memoryStateTime::REF     516742000                       # Time in different power states
system.mem_ctrls_0.memoryStateTime::SREF    557204250                       # Time in different power states
system.mem_ctrls_0.memoryStateTime::PRE_PDN   2036696500                       # Time in different power states
system.mem_ctrls_0.memoryStateTime::ACT    1748812500                       # Time in different power states
system.mem_ctrls_0.memoryStateTime::ACT_PDN  10371294875                       # Time in different power states
system.mem_ctrls_1.actEnergy                207909660                       # Energy for activate commands per rank (pJ)
system.mem_ctrls_1.preEnergy                110514195                       # Energy for precharge commands per rank (pJ)
system.mem_ctrls_1.readEnergy               260281560                       # Energy for read commands per rank (pJ)
system.mem_ctrls_1.writeEnergy               18755460                       # Energy for write commands per rank (pJ)
system.mem_ctrls_1.refreshEnergy         1233582480.000000                       # Energy for refresh commands per rank (pJ)
system.mem_ctrls_1.actBackEnergy            935037120                       # Energy for active background per rank (pJ)
system.mem_ctrls_1.preBackEnergy             35793600                       # Energy for precharge background per rank (pJ)
system.mem_ctrls_1.actPowerDownEnergy      4781332710                       # Energy for active power-down per rank (pJ)
system.mem_ctrls_1.prePowerDownEnergy       842823360                       # Energy for precharge power-down per rank (pJ)
system.mem_ctrls_1.selfRefreshEnergy        167157600                       # Energy for self refresh per rank (pJ)
system.mem_ctrls_1.totalEnergy             8593303905                       # Total energy per rank (pJ)
system.mem_ctrls_1.averagePower            562.855192                       # Core power per rank (mW)
system.mem_ctrls_1.totalIdleTime          13122505750                       # Total Idle time Per DRAM Rank
system.mem_ctrls_1.memoryStateTime::IDLE     38928000                       # Time in different power states
system.mem_ctrls_1.memoryStateTime::REF     522486000                       # Time in different power states
system.mem_ctrls_1.memoryStateTime::SREF    443120250                       # Time in different power states
system.mem_ctrls_1.memoryStateTime::PRE_PDN   2194875000                       # Time in different power states
system.mem_ctrls_1.memoryStateTime::ACT    1582527500                       # Time in different power states
system.mem_ctrls_1.memoryStateTime::ACT_PDN  10485407375                       # Time in different power states
system.pwrStateResidencyTicks::UNDEFINED  15267344125                       # Cumulative time (in ticks) in various power states
system.cpu0.branchPred.lookups                5042701                       # Number of BP lookups
system.cpu0.branchPred.condPredicted          5042701                       # Number of conditional branches predicted
system.cpu0.branchPred.condIncorrect           215931                       # Number of conditional branches incorrect
system.cpu0.branchPred.BTBLookups             4084100                       # Number of BTB lookups
system.cpu0.branchPred.BTBHits                      0                       # Number of BTB hits
system.cpu0.branchPred.BTBCorrect                   0                       # Number of correct BTB predictions (this stat may not work properly.
system.cpu0.branchPred.BTBHitPct             0.000000                       # BTB Hit Percentage
system.cpu0.branchPred.usedRAS                 129769                       # Number of times the RAS was used to get a target.
system.cpu0.branchPred.RASInCorrect             18715                       # Number of incorrect RAS predictions.
system.cpu0.branchPred.indirectLookups        4084100                       # Number of indirect predictor lookups.
system.cpu0.branchPred.indirectHits           2142608                       # Number of indirect target hits.
system.cpu0.branchPred.indirectMisses         1941492                       # Number of indirect misses.
system.cpu0.branchPredindirectMispredicted        72865                       # Number of mispredicted indirect branches.
system.cpu_voltage_domain.voltage                   1                       # Voltage in Volts
system.cpu_clk_domain.clock                       500                       # Clock period in ticks
system.cpu0.dtb.walker.pwrStateResidencyTicks::UNDEFINED  15267344125                       # Cumulative time (in ticks) in various power states
system.cpu0.dtb.rdAccesses                    2411412                       # TLB accesses on read requests
system.cpu0.dtb.wrAccesses                     139873                       # TLB accesses on write requests
system.cpu0.dtb.rdMisses                       497703                       # TLB misses on read requests
system.cpu0.dtb.wrMisses                         2772                       # TLB misses on write requests
system.cpu0.apic_clk_domain.clock                8000                       # Clock period in ticks
system.cpu0.interrupts.pwrStateResidencyTicks::UNDEFINED  15267344125                       # Cumulative time (in ticks) in various power states
system.cpu0.itb.walker.pwrStateResidencyTicks::UNDEFINED  15267344125                       # Cumulative time (in ticks) in various power states
system.cpu0.itb.rdAccesses                          0                       # TLB accesses on read requests
system.cpu0.itb.wrAccesses                    4195225                       # TLB accesses on write requests
system.cpu0.itb.rdMisses                            0                       # TLB misses on read requests
system.cpu0.itb.wrMisses                        14474                       # TLB misses on write requests
system.cpu0.workload.numSyscalls                    0                       # Number of system calls
system.cpu0.pwrStateResidencyTicks::ON    15267344125                       # Cumulative time (in ticks) in various power states
system.cpu0.numCycles                        30534688                       # number of cpu cycles simulated
system.cpu0.numWorkItemsStarted                     0                       # number of work items this cpu started
system.cpu0.numWorkItemsCompleted                   0                       # number of work items this cpu completed
system.cpu0.fetch.icacheStallCycles           4288158                       # Number of cycles fetch is stalled on an Icache miss
system.cpu0.fetch.Insts                      14488518                       # Number of instructions fetch has processed
system.cpu0.fetch.Branches                    5042701                       # Number of branches that fetch encountered
system.cpu0.fetch.predictedBranches           2272377                       # Number of branches that fetch has predicted taken
system.cpu0.fetch.Cycles                     25886725                       # Number of cycles fetch has run and was not squashing or blocked
system.cpu0.fetch.SquashCycles                 441100                       # Number of cycles fetch has spent squashing
system.cpu0.fetch.TlbCycles                      1295                       # Number of cycles fetch has spent waiting for tlb
system.cpu0.fetch.MiscStallCycles                3320                       # Number of cycles fetch has spent waiting on interrupts, or bad addresses, or out of MSHRs
system.cpu0.fetch.PendingTrapStallCycles       108004                       # Number of stall cycles due to pending traps
system.cpu0.fetch.CacheLines                  4180751                       # Number of cache lines fetched
system.cpu0.fetch.IcacheSquashes                35316                       # Number of outstanding Icache misses that were squashed
system.cpu0.fetch.ItlbSquashes                     22                       # Number of outstanding ITLB misses that were squashed
system.cpu0.fetch.rateDist::samples          30508052                       # Number of instructions fetched each cycle (Total)
system.cpu0.fetch.rateDist::mean             0.955196                       # Number of instructions fetched each cycle (Total)
system.cpu0.fetch.rateDist::stdev            2.339023                       # Number of instructions fetched each cycle (Total)
system.cpu0.fetch.rateDist::underflows              0      0.00%      0.00% # Number of instructions fetched each cycle (Total)
system.cpu0.fetch.rateDist::0                24882625     81.56%     81.56% # Number of instructions fetched each cycle (Total)
system.cpu0.fetch.rateDist::1                   74304      0.24%     81.80% # Number of instructions fetched each cycle (Total)
system.cpu0.fetch.rateDist::2                 2067728      6.78%     88.58% # Number of instructions fetched each cycle (Total)
system.cpu0.fetch.rateDist::3                   69731      0.23%     88.81% # Number of instructions fetched each cycle (Total)
system.cpu0.fetch.rateDist::4                  380584      1.25%     90.06% # Number of instructions fetched each cycle (Total)
system.cpu0.fetch.rateDist::5                  178718      0.59%     90.64% # Number of instructions fetched each cycle (Total)
system.cpu0.fetch.rateDist::6                  232886      0.76%     91.41% # Number of instructions fetched each cycle (Total)
system.cpu0.fetch.rateDist::7                   62830      0.21%     91.61% # Number of instructions fetched each cycle (Total)
system.cpu0.fetch.rateDist::8                 2558646      8.39%    100.00% # Number of instructions fetched each cycle (Total)
system.cpu0.fetch.rateDist::overflows               0      0.00%    100.00% # Number of instructions fetched each cycle (Total)
system.cpu0.fetch.rateDist::min_value               0                       # Number of instructions fetched each cycle (Total)
system.cpu0.fetch.rateDist::max_value               8                       # Number of instructions fetched each cycle (Total)
system.cpu0.fetch.rateDist::total            30508052                       # Number of instructions fetched each cycle (Total)
system.cpu0.fetch.branchRate                 0.165147                       # Number of branch fetches per cycle
system.cpu0.fetch.rate                       0.474494                       # Number of inst fetches per cycle
system.cpu0.decode.IdleCycles                 2265497                       # Number of cycles decode is idle
system.cpu0.decode.BlockedCycles             24176465                       # Number of cycles decode is blocked
system.cpu0.decode.RunCycles                  2958553                       # Number of cycles decode is running
system.cpu0.decode.UnblockCycles               886987                       # Number of cycles decode is unblocking
system.cpu0.decode.SquashCycles                220550                       # Number of cycles decode is squashing
system.cpu0.decode.DecodedInsts              24603686                       # Number of instructions handled by decode
system.cpu0.rename.SquashCycles                220550                       # Number of cycles rename is squashing
system.cpu0.rename.IdleCycles                 2596469                       # Number of cycles rename is idle
system.cpu0.rename.BlockCycles               21245770                       # Number of cycles rename is blocking
system.cpu0.rename.serializeStallCycles         53451                       # count of cycles rename stalled for serializing inst
system.cpu0.rename.RunCycles                  3332746                       # Number of cycles rename is running
system.cpu0.rename.UnblockCycles              3059066                       # Number of cycles rename is unblocking
system.cpu0.rename.RenamedInsts              23616028                       # Number of instructions processed by rename
system.cpu0.rename.ROBFullEvents                74132                       # Number of times rename has blocked due to ROB full
system.cpu0.rename.IQFullEvents               2716611                       # Number of times rename has blocked due to IQ full
system.cpu0.rename.LQFullEvents                169856                       # Number of times rename has blocked due to LQ full
system.cpu0.rename.SQFullEvents                 23149                       # Number of times rename has blocked due to SQ full
system.cpu0.rename.RenamedOperands           28143890                       # Number of destination operands rename has renamed
system.cpu0.rename.RenameLookups             65849942                       # Number of register rename lookups that rename has made
system.cpu0.rename.int_rename_lookups        30816089                       # Number of integer rename lookups
system.cpu0.rename.fp_rename_lookups           112015                       # Number of floating rename lookups
system.cpu0.rename.CommittedMaps              9972892                       # Number of HB maps that are committed
system.cpu0.rename.UndoneMaps                18170999                       # Number of HB maps that are undone due to squashing
system.cpu0.rename.serializingInsts              1382                       # count of serializing insts renamed
system.cpu0.rename.tempSerializingInsts          1609                       # count of temporary serializing insts renamed
system.cpu0.rename.skidInsts                  5462713                       # count of insts added to the skid buffer
system.cpu0.memDep0.insertedLoads             4273185                       # Number of loads inserted to the mem dependence unit.
system.cpu0.memDep0.insertedStores             212258                       # Number of stores inserted to the mem dependence unit.
system.cpu0.memDep0.conflictingLoads            12782                       # Number of conflicting loads.
system.cpu0.memDep0.conflictingStores           13258                       # Number of conflicting stores.
system.cpu0.iq.iqInstsAdded                  22346037                       # Number of instructions added to the IQ (excludes non-spec)
system.cpu0.iq.iqNonSpecInstsAdded              13668                       # Number of non-speculative instructions added to the IQ
system.cpu0.iq.iqInstsIssued                 15963224                       # Number of instructions issued
system.cpu0.iq.iqSquashedInstsIssued            23237                       # Number of squashed instructions issued
system.cpu0.iq.iqSquashedInstsExamined       14039833                       # Number of squashed instructions iterated over during squash; mainly for profiling
system.cpu0.iq.iqSquashedOperandsExamined     29662493                       # Number of squashed operands that are examined and possibly removed from graph
system.cpu0.iq.iqSquashedNonSpecRemoved         13668                       # Number of squashed non-spec instructions that were removed
system.cpu0.iq.issued_per_cycle::samples     30508052                       # Number of insts issued each cycle
system.cpu0.iq.issued_per_cycle::mean        0.523246                       # Number of insts issued each cycle
system.cpu0.iq.issued_per_cycle::stdev       1.275940                       # Number of insts issued each cycle
system.cpu0.iq.issued_per_cycle::underflows            0      0.00%      0.00% # Number of insts issued each cycle
system.cpu0.iq.issued_per_cycle::0           24305593     79.67%     79.67% # Number of insts issued each cycle
system.cpu0.iq.issued_per_cycle::1            2242700      7.35%     87.02% # Number of insts issued each cycle
system.cpu0.iq.issued_per_cycle::2            1300139      4.26%     91.28% # Number of insts issued each cycle
system.cpu0.iq.issued_per_cycle::3             907396      2.97%     94.26% # Number of insts issued each cycle
system.cpu0.iq.issued_per_cycle::4            1001419      3.28%     97.54% # Number of insts issued each cycle
system.cpu0.iq.issued_per_cycle::5             342730      1.12%     98.66% # Number of insts issued each cycle
system.cpu0.iq.issued_per_cycle::6             245462      0.80%     99.47% # Number of insts issued each cycle
system.cpu0.iq.issued_per_cycle::7              94944      0.31%     99.78% # Number of insts issued each cycle
system.cpu0.iq.issued_per_cycle::8              67669      0.22%    100.00% # Number of insts issued each cycle
system.cpu0.iq.issued_per_cycle::overflows            0      0.00%    100.00% # Number of insts issued each cycle
system.cpu0.iq.issued_per_cycle::min_value            0                       # Number of insts issued each cycle
system.cpu0.iq.issued_per_cycle::max_value            8                       # Number of insts issued each cycle
system.cpu0.iq.issued_per_cycle::total       30508052                       # Number of insts issued each cycle
system.cpu0.iq.fu_full::No_OpClass                  0      0.00%      0.00% # attempts to use FU when none available
system.cpu0.iq.fu_full::IntAlu                  35889     70.62%     70.62% # attempts to use FU when none available
system.cpu0.iq.fu_full::IntMult                     0      0.00%     70.62% # attempts to use FU when none available
system.cpu0.iq.fu_full::IntDiv                      0      0.00%     70.62% # attempts to use FU when none available
system.cpu0.iq.fu_full::FloatAdd                 3333      6.56%     77.18% # attempts to use FU when none available
system.cpu0.iq.fu_full::FloatCmp                    0      0.00%     77.18% # attempts to use FU when none available
system.cpu0.iq.fu_full::FloatCvt                    0      0.00%     77.18% # attempts to use FU when none available
system.cpu0.iq.fu_full::FloatMult                   0      0.00%     77.18% # attempts to use FU when none available
system.cpu0.iq.fu_full::FloatMultAcc                0      0.00%     77.18% # attempts to use FU when none available
system.cpu0.iq.fu_full::FloatDiv                    0      0.00%     77.18% # attempts to use FU when none available
system.cpu0.iq.fu_full::FloatMisc                   0      0.00%     77.18% # attempts to use FU when none available
system.cpu0.iq.fu_full::FloatSqrt                   0      0.00%     77.18% # attempts to use FU when none available
system.cpu0.iq.fu_full::SimdAdd                     0      0.00%     77.18% # attempts to use FU when none available
system.cpu0.iq.fu_full::SimdAddAcc                  0      0.00%     77.18% # attempts to use FU when none available
system.cpu0.iq.fu_full::SimdAlu                     0      0.00%     77.18% # attempts to use FU when none available
system.cpu0.iq.fu_full::SimdCmp                     0      0.00%     77.18% # attempts to use FU when none available
system.cpu0.iq.fu_full::SimdCvt                     0      0.00%     77.18% # attempts to use FU when none available
system.cpu0.iq.fu_full::SimdMisc                    0      0.00%     77.18% # attempts to use FU when none available
system.cpu0.iq.fu_full::SimdMult                    0      0.00%     77.18% # attempts to use FU when none available
system.cpu0.iq.fu_full::SimdMultAcc                 0      0.00%     77.18% # attempts to use FU when none available
system.cpu0.iq.fu_full::SimdShift                   0      0.00%     77.18% # attempts to use FU when none available
system.cpu0.iq.fu_full::SimdShiftAcc                0      0.00%     77.18% # attempts to use FU when none available
system.cpu0.iq.fu_full::SimdSqrt                    0      0.00%     77.18% # attempts to use FU when none available
system.cpu0.iq.fu_full::SimdFloatAdd                0      0.00%     77.18% # attempts to use FU when none available
system.cpu0.iq.fu_full::SimdFloatAlu                0      0.00%     77.18% # attempts to use FU when none available
system.cpu0.iq.fu_full::SimdFloatCmp                0      0.00%     77.18% # attempts to use FU when none available
system.cpu0.iq.fu_full::SimdFloatCvt                0      0.00%     77.18% # attempts to use FU when none available
system.cpu0.iq.fu_full::SimdFloatDiv                0      0.00%     77.18% # attempts to use FU when none available
system.cpu0.iq.fu_full::SimdFloatMisc               0      0.00%     77.18% # attempts to use FU when none available
system.cpu0.iq.fu_full::SimdFloatMult               0      0.00%     77.18% # attempts to use FU when none available
system.cpu0.iq.fu_full::SimdFloatMultAcc            0      0.00%     77.18% # attempts to use FU when none available
system.cpu0.iq.fu_full::SimdFloatSqrt               0      0.00%     77.18% # attempts to use FU when none available
system.cpu0.iq.fu_full::MemRead                 10310     20.29%     97.47% # attempts to use FU when none available
system.cpu0.iq.fu_full::MemWrite                  880      1.73%     99.20% # attempts to use FU when none available
system.cpu0.iq.fu_full::FloatMemRead              287      0.56%     99.76% # attempts to use FU when none available
system.cpu0.iq.fu_full::FloatMemWrite             121      0.24%    100.00% # attempts to use FU when none available
system.cpu0.iq.fu_full::IprAccess                   0      0.00%    100.00% # attempts to use FU when none available
system.cpu0.iq.fu_full::InstPrefetch                0      0.00%    100.00% # attempts to use FU when none available
system.cpu0.iq.FU_type_0::No_OpClass            52718      0.33%      0.33% # Type of FU issued
system.cpu0.iq.FU_type_0::IntAlu             13128538     82.24%     82.57% # Type of FU issued
system.cpu0.iq.FU_type_0::IntMult                2528      0.02%     82.59% # Type of FU issued
system.cpu0.iq.FU_type_0::IntDiv                27522      0.17%     82.76% # Type of FU issued
system.cpu0.iq.FU_type_0::FloatAdd              40868      0.26%     83.02% # Type of FU issued
system.cpu0.iq.FU_type_0::FloatCmp                  0      0.00%     83.02% # Type of FU issued
system.cpu0.iq.FU_type_0::FloatCvt                  0      0.00%     83.02% # Type of FU issued
system.cpu0.iq.FU_type_0::FloatMult                 0      0.00%     83.02% # Type of FU issued
system.cpu0.iq.FU_type_0::FloatMultAcc              0      0.00%     83.02% # Type of FU issued
system.cpu0.iq.FU_type_0::FloatDiv                  0      0.00%     83.02% # Type of FU issued
system.cpu0.iq.FU_type_0::FloatMisc                 0      0.00%     83.02% # Type of FU issued
system.cpu0.iq.FU_type_0::FloatSqrt                 0      0.00%     83.02% # Type of FU issued
system.cpu0.iq.FU_type_0::SimdAdd                   0      0.00%     83.02% # Type of FU issued
system.cpu0.iq.FU_type_0::SimdAddAcc                0      0.00%     83.02% # Type of FU issued
system.cpu0.iq.FU_type_0::SimdAlu                   0      0.00%     83.02% # Type of FU issued
system.cpu0.iq.FU_type_0::SimdCmp                   0      0.00%     83.02% # Type of FU issued
system.cpu0.iq.FU_type_0::SimdCvt                   0      0.00%     83.02% # Type of FU issued
system.cpu0.iq.FU_type_0::SimdMisc                  0      0.00%     83.02% # Type of FU issued
system.cpu0.iq.FU_type_0::SimdMult                  0      0.00%     83.02% # Type of FU issued
system.cpu0.iq.FU_type_0::SimdMultAcc               0      0.00%     83.02% # Type of FU issued
system.cpu0.iq.FU_type_0::SimdShift                 0      0.00%     83.02% # Type of FU issued
system.cpu0.iq.FU_type_0::SimdShiftAcc              0      0.00%     83.02% # Type of FU issued
system.cpu0.iq.FU_type_0::SimdSqrt                  0      0.00%     83.02% # Type of FU issued
system.cpu0.iq.FU_type_0::SimdFloatAdd              0      0.00%     83.02% # Type of FU issued
system.cpu0.iq.FU_type_0::SimdFloatAlu              0      0.00%     83.02% # Type of FU issued
system.cpu0.iq.FU_type_0::SimdFloatCmp              0      0.00%     83.02% # Type of FU issued
system.cpu0.iq.FU_type_0::SimdFloatCvt              0      0.00%     83.02% # Type of FU issued
system.cpu0.iq.FU_type_0::SimdFloatDiv              0      0.00%     83.02% # Type of FU issued
system.cpu0.iq.FU_type_0::SimdFloatMisc             0      0.00%     83.02% # Type of FU issued
system.cpu0.iq.FU_type_0::SimdFloatMult             0      0.00%     83.02% # Type of FU issued
system.cpu0.iq.FU_type_0::SimdFloatMultAcc            0      0.00%     83.02% # Type of FU issued
system.cpu0.iq.FU_type_0::SimdFloatSqrt             0      0.00%     83.02% # Type of FU issued
system.cpu0.iq.FU_type_0::MemRead             2552477     15.99%     99.01% # Type of FU issued
system.cpu0.iq.FU_type_0::MemWrite             151466      0.95%     99.96% # Type of FU issued
system.cpu0.iq.FU_type_0::FloatMemRead           6644      0.04%    100.00% # Type of FU issued
system.cpu0.iq.FU_type_0::FloatMemWrite           463      0.00%    100.00% # Type of FU issued
system.cpu0.iq.FU_type_0::IprAccess                 0      0.00%    100.00% # Type of FU issued
system.cpu0.iq.FU_type_0::InstPrefetch              0      0.00%    100.00% # Type of FU issued
system.cpu0.iq.FU_type_0::total              15963224                       # Type of FU issued
system.cpu0.iq.rate                          0.522790                       # Inst issue rate
system.cpu0.iq.fu_busy_cnt                      50820                       # FU busy when requested
system.cpu0.iq.fu_busy_rate                  0.003184                       # FU busy rate (busy events/executed inst)
system.cpu0.iq.int_inst_queue_reads          62407998                       # Number of integer instruction queue reads
system.cpu0.iq.int_inst_queue_writes         36302848                       # Number of integer instruction queue writes
system.cpu0.iq.int_inst_queue_wakeup_accesses     15242376                       # Number of integer instruction queue wakeup accesses
system.cpu0.iq.fp_inst_queue_reads             100560                       # Number of floating instruction queue reads
system.cpu0.iq.fp_inst_queue_writes             96700                       # Number of floating instruction queue writes
system.cpu0.iq.fp_inst_queue_wakeup_accesses        44124                       # Number of floating instruction queue wakeup accesses
system.cpu0.iq.vec_inst_queue_reads                 0                       # Number of vector instruction queue reads
system.cpu0.iq.vec_inst_queue_writes                0                       # Number of vector instruction queue writes
system.cpu0.iq.vec_inst_queue_wakeup_accesses            0                       # Number of vector instruction queue wakeup accesses
system.cpu0.iq.int_alu_accesses              15909543                       # Number of integer alu accesses
system.cpu0.iq.fp_alu_accesses                  51783                       # Number of floating point alu accesses
system.cpu0.iq.vec_alu_accesses                     0                       # Number of vector alu accesses
system.cpu0.iew.lsq.thread0.forwLoads           11832                       # Number of loads that had data forwarded from stores
system.cpu0.iew.lsq.thread0.invAddrLoads            0                       # Number of loads ignored due to an invalid address
system.cpu0.iew.lsq.thread0.squashedLoads      2691011                       # Number of loads squashed
system.cpu0.iew.lsq.thread0.ignoredResponses          476                       # Number of memory responses ignored because the instruction is squashed
system.cpu0.iew.lsq.thread0.memOrderViolation           14                       # Number of memory ordering violations
system.cpu0.iew.lsq.thread0.squashedStores       136351                       # Number of stores squashed
system.cpu0.iew.lsq.thread0.invAddrSwpfs            0                       # Number of software prefetches ignored due to an invalid address
system.cpu0.iew.lsq.thread0.blockedLoads            0                       # Number of blocked loads due to partial load-store forwarding
system.cpu0.iew.lsq.thread0.rescheduledLoads           83                       # Number of loads that were rescheduled
system.cpu0.iew.lsq.thread0.cacheBlocked         5956                       # Number of times an access to memory failed due to the cache being blocked
system.cpu0.iew.iewIdleCycles                       0                       # Number of cycles IEW is idle
system.cpu0.iew.iewSquashCycles                220550                       # Number of cycles IEW is squashing
system.cpu0.iew.iewBlockCycles               18294647                       # Number of cycles IEW is blocking
system.cpu0.iew.iewUnblockCycles               516989                       # Number of cycles IEW is unblocking
system.cpu0.iew.iewDispatchedInsts           22359705                       # Number of instructions dispatched to IQ
system.cpu0.iew.iewDispSquashedInsts            13451                       # Number of squashed instructions skipped by dispatch
system.cpu0.iew.iewDispLoadInsts              4273185                       # Number of dispatched load instructions
system.cpu0.iew.iewDispStoreInsts              212258                       # Number of dispatched store instructions
system.cpu0.iew.iewDispNonSpecInsts              5301                       # Number of dispatched non-speculative instructions
system.cpu0.iew.iewIQFullEvents                 40901                       # Number of times the IQ has become full, causing a stall
system.cpu0.iew.iewLSQFullEvents                45694                       # Number of times the LSQ has become full, causing a stall
system.cpu0.iew.memOrderViolationEvents            14                       # Number of memory order violations
system.cpu0.iew.predictedTakenIncorrect        114574                       # Number of branches that were predicted taken incorrectly
system.cpu0.iew.predictedNotTakenIncorrect       128706                       # Number of branches that were predicted not taken incorrectly
system.cpu0.iew.branchMispredicts              243280                       # Number of branch mispredicts detected at execute
system.cpu0.iew.iewExecutedInsts             15617208                       # Number of executed instructions
system.cpu0.iew.iewExecLoadInsts              2410687                       # Number of load instructions executed
system.cpu0.iew.iewExecSquashedInsts           346017                       # Number of squashed instructions skipped in execute
system.cpu0.iew.exec_swp                            0                       # number of swp insts executed
system.cpu0.iew.exec_nop                            0                       # number of nop insts executed
system.cpu0.iew.exec_refs                     2550518                       # number of memory reference insts executed
system.cpu0.iew.exec_branches                 1887701                       # Number of branches executed
system.cpu0.iew.exec_stores                    139831                       # Number of stores executed
system.cpu0.iew.exec_rate                    0.511458                       # Inst execution rate
system.cpu0.iew.wb_sent                      15340958                       # cumulative count of insts sent to commit
system.cpu0.iew.wb_count                     15286500                       # cumulative count of insts written-back
system.cpu0.iew.wb_producers                 11514591                       # num instructions producing a value
system.cpu0.iew.wb_consumers                 18090153                       # num instructions consuming a value
system.cpu0.iew.wb_rate                      0.500627                       # insts written-back per cycle
system.cpu0.iew.wb_fanout                    0.636512                       # average fanout of values written-back
system.cpu0.commit.commitSquashedInsts       14041018                       # The number of squashed insts skipped by commit
system.cpu0.commit.branchMispredicts           220544                       # The number of times a branch was mispredicted
system.cpu0.commit.committed_per_cycle::samples     28530422                       # Number of insts commited each cycle
system.cpu0.commit.committed_per_cycle::mean     0.291614                       # Number of insts commited each cycle
system.cpu0.commit.committed_per_cycle::stdev     0.970505                       # Number of insts commited each cycle
system.cpu0.commit.committed_per_cycle::underflows            0      0.00%      0.00% # Number of insts commited each cycle
system.cpu0.commit.committed_per_cycle::0     24955627     87.47%     87.47% # Number of insts commited each cycle
system.cpu0.commit.committed_per_cycle::1      1638878      5.74%     93.21% # Number of insts commited each cycle
system.cpu0.commit.committed_per_cycle::2       382037      1.34%     94.55% # Number of insts commited each cycle
system.cpu0.commit.committed_per_cycle::3      1063304      3.73%     98.28% # Number of insts commited each cycle
system.cpu0.commit.committed_per_cycle::4       198870      0.70%     98.98% # Number of insts commited each cycle
system.cpu0.commit.committed_per_cycle::5       116805      0.41%     99.39% # Number of insts commited each cycle
system.cpu0.commit.committed_per_cycle::6        20761      0.07%     99.46% # Number of insts commited each cycle
system.cpu0.commit.committed_per_cycle::7        10183      0.04%     99.50% # Number of insts commited each cycle
system.cpu0.commit.committed_per_cycle::8       143957      0.50%    100.00% # Number of insts commited each cycle
system.cpu0.commit.committed_per_cycle::overflows            0      0.00%    100.00% # Number of insts commited each cycle
system.cpu0.commit.committed_per_cycle::min_value            0                       # Number of insts commited each cycle
system.cpu0.commit.committed_per_cycle::max_value            8                       # Number of insts commited each cycle
system.cpu0.commit.committed_per_cycle::total     28530422                       # Number of insts commited each cycle
system.cpu0.commit.committedInsts             4161498                       # Number of instructions committed
system.cpu0.commit.committedOps               8319872                       # Number of ops (including micro ops) committed
system.cpu0.commit.swp_count                        0                       # Number of s/w prefetches committed
system.cpu0.commit.refs                       1658081                       # Number of memory references committed
system.cpu0.commit.loads                      1582174                       # Number of loads committed
system.cpu0.commit.membars                          0                       # Number of memory barriers committed
system.cpu0.commit.branches                   1508525                       # Number of branches committed
system.cpu0.commit.vec_insts                        0                       # Number of committed Vector instructions.
system.cpu0.commit.fp_insts                     30358                       # Number of committed floating point instructions.
system.cpu0.commit.int_insts                  8289070                       # Number of committed integer instructions.
system.cpu0.commit.function_calls               13400                       # Number of function calls committed.
system.cpu0.commit.op_class_0::No_OpClass         9248      0.11%      0.11% # Class of committed instruction
system.cpu0.commit.op_class_0::IntAlu         6603531     79.37%     79.48% # Class of committed instruction
system.cpu0.commit.op_class_0::IntMult            536      0.01%     79.49% # Class of committed instruction
system.cpu0.commit.op_class_0::IntDiv           22520      0.27%     79.76% # Class of committed instruction
system.cpu0.commit.op_class_0::FloatAdd         25956      0.31%     80.07% # Class of committed instruction
system.cpu0.commit.op_class_0::FloatCmp             0      0.00%     80.07% # Class of committed instruction
system.cpu0.commit.op_class_0::FloatCvt             0      0.00%     80.07% # Class of committed instruction
system.cpu0.commit.op_class_0::FloatMult            0      0.00%     80.07% # Class of committed instruction
system.cpu0.commit.op_class_0::FloatMultAcc            0      0.00%     80.07% # Class of committed instruction
system.cpu0.commit.op_class_0::FloatDiv             0      0.00%     80.07% # Class of committed instruction
system.cpu0.commit.op_class_0::FloatMisc            0      0.00%     80.07% # Class of committed instruction
system.cpu0.commit.op_class_0::FloatSqrt            0      0.00%     80.07% # Class of committed instruction
system.cpu0.commit.op_class_0::SimdAdd              0      0.00%     80.07% # Class of committed instruction
system.cpu0.commit.op_class_0::SimdAddAcc            0      0.00%     80.07% # Class of committed instruction
system.cpu0.commit.op_class_0::SimdAlu              0      0.00%     80.07% # Class of committed instruction
system.cpu0.commit.op_class_0::SimdCmp              0      0.00%     80.07% # Class of committed instruction
system.cpu0.commit.op_class_0::SimdCvt              0      0.00%     80.07% # Class of committed instruction
system.cpu0.commit.op_class_0::SimdMisc             0      0.00%     80.07% # Class of committed instruction
system.cpu0.commit.op_class_0::SimdMult             0      0.00%     80.07% # Class of committed instruction
system.cpu0.commit.op_class_0::SimdMultAcc            0      0.00%     80.07% # Class of committed instruction
system.cpu0.commit.op_class_0::SimdShift            0      0.00%     80.07% # Class of committed instruction
system.cpu0.commit.op_class_0::SimdShiftAcc            0      0.00%     80.07% # Class of committed instruction
system.cpu0.commit.op_class_0::SimdSqrt             0      0.00%     80.07% # Class of committed instruction
system.cpu0.commit.op_class_0::SimdFloatAdd            0      0.00%     80.07% # Class of committed instruction
system.cpu0.commit.op_class_0::SimdFloatAlu            0      0.00%     80.07% # Class of committed instruction
system.cpu0.commit.op_class_0::SimdFloatCmp            0      0.00%     80.07% # Class of committed instruction
system.cpu0.commit.op_class_0::SimdFloatCvt            0      0.00%     80.07% # Class of committed instruction
system.cpu0.commit.op_class_0::SimdFloatDiv            0      0.00%     80.07% # Class of committed instruction
system.cpu0.commit.op_class_0::SimdFloatMisc            0      0.00%     80.07% # Class of committed instruction
system.cpu0.commit.op_class_0::SimdFloatMult            0      0.00%     80.07% # Class of committed instruction
system.cpu0.commit.op_class_0::SimdFloatMultAcc            0      0.00%     80.07% # Class of committed instruction
system.cpu0.commit.op_class_0::SimdFloatSqrt            0      0.00%     80.07% # Class of committed instruction
system.cpu0.commit.op_class_0::MemRead        1577772     18.96%     99.03% # Class of committed instruction
system.cpu0.commit.op_class_0::MemWrite         75907      0.91%     99.95% # Class of committed instruction
system.cpu0.commit.op_class_0::FloatMemRead         4402      0.05%    100.00% # Class of committed instruction
system.cpu0.commit.op_class_0::FloatMemWrite            0      0.00%    100.00% # Class of committed instruction
system.cpu0.commit.op_class_0::IprAccess            0      0.00%    100.00% # Class of committed instruction
system.cpu0.commit.op_class_0::InstPrefetch            0      0.00%    100.00% # Class of committed instruction
system.cpu0.commit.op_class_0::total          8319872                       # Class of committed instruction
system.cpu0.commit.bw_lim_events               143957                       # number cycles where commit BW limit reached
system.cpu0.rob.rob_reads                    50747355                       # The number of ROB reads
system.cpu0.rob.rob_writes                   46705421                       # The number of ROB writes
system.cpu0.timesIdled                            582                       # Number of times that the entire CPU went into an idle state and unscheduled itself
system.cpu0.idleCycles                          26636                       # Total number of cycles that the CPU has spent unscheduled due to idling
system.cpu0.committedInsts                    4161498                       # Number of Instructions Simulated
system.cpu0.committedOps                      8319872                       # Number of Ops (including micro ops) Simulated
system.cpu0.cpi                              7.337427                       # CPI: Cycles Per Instruction
system.cpu0.cpi_total                        7.337427                       # CPI: Total CPI of All Threads
system.cpu0.ipc                              0.136288                       # IPC: Instructions Per Cycle
system.cpu0.ipc_total                        0.136288                       # IPC: Total IPC of All Threads
system.cpu0.int_regfile_reads                15398416                       # number of integer regfile reads
system.cpu0.int_regfile_writes               13277724                       # number of integer regfile writes
system.cpu0.fp_regfile_reads                    79170                       # number of floating regfile reads
system.cpu0.fp_regfile_writes                   39528                       # number of floating regfile writes
system.cpu0.cc_regfile_reads                  9925669                       # number of cc regfile reads
system.cpu0.cc_regfile_writes                 4213177                       # number of cc regfile writes
system.cpu0.misc_regfile_reads                8300131                       # number of misc regfile reads
system.cpu0.dcache.tags.pwrStateResidencyTicks::UNDEFINED  15267344125                       # Cumulative time (in ticks) in various power states
system.cpu0.dcache.tags.replacements           833884                       # number of replacements
system.cpu0.dcache.tags.tagsinuse                 512                       # Cycle average of tags in use
system.cpu0.dcache.tags.total_refs            1042507                       # Total number of references to valid blocks.
system.cpu0.dcache.tags.sampled_refs           833884                       # Sample count of references to valid blocks.
system.cpu0.dcache.tags.avg_refs             1.250182                       # Average number of references to valid blocks.
system.cpu0.dcache.tags.warmup_cycle                0                       # Cycle when the warmup percentage was hit.
system.cpu0.dcache.tags.occ_blocks::cpu0.data          512                       # Average occupied blocks per requestor
system.cpu0.dcache.tags.occ_percent::cpu0.data            1                       # Average percentage of cache occupancy
system.cpu0.dcache.tags.occ_percent::total            1                       # Average percentage of cache occupancy
system.cpu0.dcache.tags.occ_task_id_blocks::1024          512                       # Occupied blocks per task id
system.cpu0.dcache.tags.age_task_id_blocks_1024::0          473                       # Occupied blocks per task id
system.cpu0.dcache.tags.age_task_id_blocks_1024::1           39                       # Occupied blocks per task id
system.cpu0.dcache.tags.occ_task_id_percent::1024            1                       # Percentage of cache occupancy per task id
system.cpu0.dcache.tags.tag_accesses         10674072                       # Number of tag accesses
system.cpu0.dcache.tags.data_accesses        10674072                       # Number of data accesses
system.cpu0.dcache.pwrStateResidencyTicks::UNDEFINED  15267344125                       # Cumulative time (in ticks) in various power states
system.cpu0.dcache.ReadReq_hits::cpu0.data       970084                       # number of ReadReq hits
system.cpu0.dcache.ReadReq_hits::total         970084                       # number of ReadReq hits
system.cpu0.dcache.WriteReq_hits::cpu0.data        72512                       # number of WriteReq hits
system.cpu0.dcache.WriteReq_hits::total         72512                       # number of WriteReq hits
system.cpu0.dcache.demand_hits::cpu0.data      1042596                       # number of demand (read+write) hits
system.cpu0.dcache.demand_hits::total         1042596                       # number of demand (read+write) hits
system.cpu0.dcache.overall_hits::cpu0.data      1042596                       # number of overall hits
system.cpu0.dcache.overall_hits::total        1042596                       # number of overall hits
system.cpu0.dcache.ReadReq_misses::cpu0.data      1414056                       # number of ReadReq misses
system.cpu0.dcache.ReadReq_misses::total      1414056                       # number of ReadReq misses
system.cpu0.dcache.WriteReq_misses::cpu0.data         3395                       # number of WriteReq misses
system.cpu0.dcache.WriteReq_misses::total         3395                       # number of WriteReq misses
system.cpu0.dcache.demand_misses::cpu0.data      1417451                       # number of demand (read+write) misses
system.cpu0.dcache.demand_misses::total       1417451                       # number of demand (read+write) misses
system.cpu0.dcache.overall_misses::cpu0.data      1417451                       # number of overall misses
system.cpu0.dcache.overall_misses::total      1417451                       # number of overall misses
system.cpu0.dcache.ReadReq_miss_latency::cpu0.data  31179535500                       # number of ReadReq miss cycles
system.cpu0.dcache.ReadReq_miss_latency::total  31179535500                       # number of ReadReq miss cycles
system.cpu0.dcache.WriteReq_miss_latency::cpu0.data    136235992                       # number of WriteReq miss cycles
system.cpu0.dcache.WriteReq_miss_latency::total    136235992                       # number of WriteReq miss cycles
system.cpu0.dcache.demand_miss_latency::cpu0.data  31315771492                       # number of demand (read+write) miss cycles
system.cpu0.dcache.demand_miss_latency::total  31315771492                       # number of demand (read+write) miss cycles
system.cpu0.dcache.overall_miss_latency::cpu0.data  31315771492                       # number of overall miss cycles
system.cpu0.dcache.overall_miss_latency::total  31315771492                       # number of overall miss cycles
system.cpu0.dcache.ReadReq_accesses::cpu0.data      2384140                       # number of ReadReq accesses(hits+misses)
system.cpu0.dcache.ReadReq_accesses::total      2384140                       # number of ReadReq accesses(hits+misses)
[...]
system.l2.demand_miss_rate::cpu0.data        0.092958                       # miss rate for demand accesses
system.l2.demand_miss_rate::total            0.092960                       # miss rate for demand accesses
system.l2.overall_miss_rate::cpu0.inst       0.500000                       # miss rate for overall accesses
system.l2.overall_miss_rate::cpu0.data       0.092958                       # miss rate for overall accesses
system.l2.overall_miss_rate::total           0.092960                       # miss rate for overall accesses
system.l2.ReadExReq_avg_miss_latency::cpu0.data 136570.236439                       # average ReadExReq miss latency
system.l2.ReadExReq_avg_miss_latency::total 136570.236439                       # average ReadExReq miss latency
system.l2.ReadCleanReq_avg_miss_latency::cpu0.inst        96750                       # average ReadCleanReq miss latency
system.l2.ReadCleanReq_avg_miss_latency::total        96750                       # average ReadCleanReq miss latency
system.l2.ReadSharedReq_avg_miss_latency::cpu0.data 99380.034376                       # average ReadSharedReq miss latency
system.l2.ReadSharedReq_avg_miss_latency::total 99380.034376                       # average ReadSharedReq miss latency
system.l2.demand_avg_miss_latency::cpu0.inst        96750                       # average overall miss latency
system.l2.demand_avg_miss_latency::cpu0.data 99724.992260                       # average overall miss latency
system.l2.demand_avg_miss_latency::total 99724.915503                       # average overall miss latency
system.l2.overall_avg_miss_latency::cpu0.inst        96750                       # average overall miss latency
system.l2.overall_avg_miss_latency::cpu0.data 99724.992260                       # average overall miss latency
system.l2.overall_avg_miss_latency::total 99724.915503                       # average overall miss latency
system.l2.blocked_cycles::no_mshrs                  0                       # number of cycles access was blocked
system.l2.blocked_cycles::no_targets                0                       # number of cycles access was blocked
system.l2.blocked::no_mshrs                         0                       # number of cycles access was blocked
system.l2.blocked::no_targets                       0                       # number of cycles access was blocked
system.l2.avg_blocked_cycles::no_mshrs            nan                       # average number of cycles each access was blocked
system.l2.avg_blocked_cycles::no_targets          nan                       # average number of cycles each access was blocked
system.l2.writebacks::writebacks                 6627                       # number of writebacks
system.l2.writebacks::total                      6627                       # number of writebacks
system.l2.ReadExReq_mshr_misses::cpu0.data          719                       # number of ReadExReq MSHR misses
system.l2.ReadExReq_mshr_misses::total            719                       # number of ReadExReq MSHR misses
system.l2.ReadCleanReq_mshr_misses::cpu0.inst            2                       # number of ReadCleanReq MSHR misses
system.l2.ReadCleanReq_mshr_misses::total            2                       # number of ReadCleanReq MSHR misses
system.l2.ReadSharedReq_mshr_misses::cpu0.data        76797                       # number of ReadSharedReq MSHR misses
system.l2.ReadSharedReq_mshr_misses::total        76797                       # number of ReadSharedReq MSHR misses
system.l2.demand_mshr_misses::cpu0.inst             2                       # number of demand (read+write) MSHR misses
system.l2.demand_mshr_misses::cpu0.data         77516                       # number of demand (read+write) MSHR misses
system.l2.demand_mshr_misses::total             77518                       # number of demand (read+write) MSHR misses
system.l2.overall_mshr_misses::cpu0.inst            2                       # number of overall MSHR misses
system.l2.overall_mshr_misses::cpu0.data        77516                       # number of overall MSHR misses
system.l2.overall_mshr_misses::total            77518                       # number of overall MSHR misses
system.l2.ReadExReq_mshr_miss_latency::cpu0.data     91004000                       # number of ReadExReq MSHR miss cycles
system.l2.ReadExReq_mshr_miss_latency::total     91004000                       # number of ReadExReq MSHR miss cycles
system.l2.ReadCleanReq_mshr_miss_latency::cpu0.inst       173500                       # number of ReadCleanReq MSHR miss cycles
system.l2.ReadCleanReq_mshr_miss_latency::total       173500                       # number of ReadCleanReq MSHR miss cycles
system.l2.ReadSharedReq_mshr_miss_latency::cpu0.data   6864118500                       # number of ReadSharedReq MSHR miss cycles
system.l2.ReadSharedReq_mshr_miss_latency::total   6864118500                       # number of ReadSharedReq MSHR miss cycles
system.l2.demand_mshr_miss_latency::cpu0.inst       173500                       # number of demand (read+write) MSHR miss cycles
system.l2.demand_mshr_miss_latency::cpu0.data   6955122500                       # number of demand (read+write) MSHR miss cycles
system.l2.demand_mshr_miss_latency::total   6955296000                       # number of demand (read+write) MSHR miss cycles
system.l2.overall_mshr_miss_latency::cpu0.inst       173500                       # number of overall MSHR miss cycles
system.l2.overall_mshr_miss_latency::cpu0.data   6955122500                       # number of overall MSHR miss cycles
system.l2.overall_mshr_miss_latency::total   6955296000                       # number of overall MSHR miss cycles
system.l2.ReadExReq_mshr_miss_rate::cpu0.data     0.212596                       # mshr miss rate for ReadExReq accesses
system.l2.ReadExReq_mshr_miss_rate::total     0.212596                       # mshr miss rate for ReadExReq accesses
system.l2.ReadCleanReq_mshr_miss_rate::cpu0.inst     0.500000                       # mshr miss rate for ReadCleanReq accesses
system.l2.ReadCleanReq_mshr_miss_rate::total     0.500000                       # mshr miss rate for ReadCleanReq accesses
system.l2.ReadSharedReq_mshr_miss_rate::cpu0.data     0.092470                       # mshr miss rate for ReadSharedReq accesses
system.l2.ReadSharedReq_mshr_miss_rate::total     0.092470                       # mshr miss rate for ReadSharedReq accesses
system.l2.demand_mshr_miss_rate::cpu0.inst     0.500000                       # mshr miss rate for demand accesses
system.l2.demand_mshr_miss_rate::cpu0.data     0.092958                       # mshr miss rate for demand accesses
system.l2.demand_mshr_miss_rate::total       0.092960                       # mshr miss rate for demand accesses
system.l2.overall_mshr_miss_rate::cpu0.inst     0.500000                       # mshr miss rate for overall accesses
system.l2.overall_mshr_miss_rate::cpu0.data     0.092958                       # mshr miss rate for overall accesses
system.l2.overall_mshr_miss_rate::total      0.092960                       # mshr miss rate for overall accesses
system.l2.ReadExReq_avg_mshr_miss_latency::cpu0.data 126570.236439                       # average ReadExReq mshr miss latency
system.l2.ReadExReq_avg_mshr_miss_latency::total 126570.236439                       # average ReadExReq mshr miss latency
system.l2.ReadCleanReq_avg_mshr_miss_latency::cpu0.inst        86750                       # average ReadCleanReq mshr miss latency
system.l2.ReadCleanReq_avg_mshr_miss_latency::total        86750                       # average ReadCleanReq mshr miss latency
system.l2.ReadSharedReq_avg_mshr_miss_latency::cpu0.data 89380.034376                       # average ReadSharedReq mshr miss latency
system.l2.ReadSharedReq_avg_mshr_miss_latency::total 89380.034376                       # average ReadSharedReq mshr miss latency
system.l2.demand_avg_mshr_miss_latency::cpu0.inst        86750                       # average overall mshr miss latency
system.l2.demand_avg_mshr_miss_latency::cpu0.data 89724.992260                       # average overall mshr miss latency
system.l2.demand_avg_mshr_miss_latency::total 89724.915503                       # average overall mshr miss latency
system.l2.overall_avg_mshr_miss_latency::cpu0.inst        86750                       # average overall mshr miss latency
system.l2.overall_avg_mshr_miss_latency::cpu0.data 89724.992260                       # average overall mshr miss latency
system.l2.overall_avg_mshr_miss_latency::total 89724.915503                       # average overall mshr miss latency
system.membus.snoop_filter.tot_requests        155034                       # Total number of requests made to the snoop filter.
system.membus.snoop_filter.hit_single_requests        77518                       # Number of requests hitting in the snoop filter with a single holder of the requested data.
system.membus.snoop_filter.hit_multi_requests            0                       # Number of requests hitting in the snoop filter with multiple (>1) holders of the requested data.
system.membus.snoop_filter.tot_snoops               0                       # Total number of snoops made to the snoop filter.
system.membus.snoop_filter.hit_single_snoops            0                       # Number of snoops hitting in the snoop filter with a single holder of the requested data.
system.membus.snoop_filter.hit_multi_snoops            0                       # Number of snoops hitting in the snoop filter with multiple (>1) holders of the requested data.
system.membus.pwrStateResidencyTicks::UNDEFINED  15267344125                       # Cumulative time (in ticks) in various power states
system.membus.trans_dist::ReadResp              76799                       # Transaction distribution
system.membus.trans_dist::WritebackDirty         6627                       # Transaction distribution
system.membus.trans_dist::CleanEvict            70889                       # Transaction distribution
system.membus.trans_dist::ReadExReq               719                       # Transaction distribution
system.membus.trans_dist::ReadExResp              719                       # Transaction distribution
system.membus.trans_dist::ReadSharedReq         76799                       # Transaction distribution
system.membus.pkt_count_system.l2.mem_side::system.mem_ctrls.port       232552                       # Packet count per connected master and slave (bytes)
system.membus.pkt_count_system.l2.mem_side::total       232552                       # Packet count per connected master and slave (bytes)
system.membus.pkt_count::total                 232552                       # Packet count per connected master and slave (bytes)
system.membus.pkt_size_system.l2.mem_side::system.mem_ctrls.port      5385280                       # Cumulative packet size per connected master and slave (bytes)
system.membus.pkt_size_system.l2.mem_side::total      5385280                       # Cumulative packet size per connected master and slave (bytes)
system.membus.pkt_size::total                 5385280                       # Cumulative packet size per connected master and slave (bytes)
system.membus.snoops                                0                       # Total snoops (count)
system.membus.snoopTraffic                          0                       # Total snoop traffic (bytes)
system.membus.snoop_fanout::samples             77518                       # Request fanout histogram
system.membus.snoop_fanout::mean                    0                       # Request fanout histogram
system.membus.snoop_fanout::stdev                   0                       # Request fanout histogram
system.membus.snoop_fanout::underflows              0      0.00%      0.00% # Request fanout histogram
system.membus.snoop_fanout::0                   77518    100.00%    100.00% # Request fanout histogram
system.membus.snoop_fanout::1                       0      0.00%    100.00% # Request fanout histogram
system.membus.snoop_fanout::overflows               0      0.00%    100.00% # Request fanout histogram
system.membus.snoop_fanout::min_value               0                       # Request fanout histogram
system.membus.snoop_fanout::max_value               0                       # Request fanout histogram
system.membus.snoop_fanout::total               77518                       # Request fanout histogram
system.membus.reqLayer12.occupancy          203541500                       # Layer occupancy (ticks)
system.membus.reqLayer12.utilization              1.3                       # Layer utilization (%)
system.membus.respLayer1.occupancy          427123000                       # Layer occupancy (ticks)
system.membus.respLayer1.utilization              2.8                       # Layer utilization (%)
system.tol2bus.snoop_filter.tot_requests      1667777                       # Total number of requests made to the snoop filter.
system.tol2bus.snoop_filter.hit_single_requests       833888                       # Number of requests hitting in the snoop filter with a single holder of the requested data.
system.tol2bus.snoop_filter.hit_multi_requests         1762                       # Number of requests hitting in the snoop filter with multiple (>1) holders of the requested data.
system.tol2bus.snoop_filter.tot_snoops              4                       # Total number of snoops made to the snoop filter.
system.tol2bus.snoop_filter.hit_single_snoops            4                       # Number of snoops hitting in the snoop filter with a single holder of the requested data.
system.tol2bus.snoop_filter.hit_multi_snoops            0                       # Number of snoops hitting in the snoop filter with multiple (>1) holders of the requested data.
system.tol2bus.pwrStateResidencyTicks::UNDEFINED  15267344125                       # Cumulative time (in ticks) in various power states
system.tol2bus.trans_dist::ReadResp            830506                       # Transaction distribution
system.tol2bus.trans_dist::WritebackDirty       187280                       # Transaction distribution
system.tol2bus.trans_dist::WritebackClean            4                       # Transaction distribution
system.tol2bus.trans_dist::CleanEvict          724124                       # Transaction distribution
system.tol2bus.trans_dist::ReadExReq             3382                       # Transaction distribution
system.tol2bus.trans_dist::ReadExResp            3382                       # Transaction distribution
system.tol2bus.trans_dist::ReadCleanReq             4                       # Transaction distribution
system.tol2bus.trans_dist::ReadSharedReq       830503                       # Transaction distribution
system.tol2bus.pkt_count_system.cpu0.icache.mem_side::system.l2.cpu_side           12                       # Packet count per connected master and slave (bytes)
system.tol2bus.pkt_count_system.cpu0.dcache.mem_side::system.l2.cpu_side      2501653                       # Packet count per connected master and slave (bytes)
system.tol2bus.pkt_count::total               2501665                       # Packet count per connected master and slave (bytes)
system.tol2bus.pkt_size_system.cpu0.icache.mem_side::system.l2.cpu_side          512                       # Cumulative packet size per connected master and slave (bytes)
system.tol2bus.pkt_size_system.cpu0.dcache.mem_side::system.l2.cpu_side     64930368                       # Cumulative packet size per connected master and slave (bytes)
system.tol2bus.pkt_size::total               64930880                       # Cumulative packet size per connected master and slave (bytes)
system.tol2bus.snoops                           77520                       # Total snoops (count)
system.tol2bus.snoopTraffic                    424128                       # Total snoop traffic (bytes)
system.tol2bus.snoop_fanout::samples           911409                       # Request fanout histogram
system.tol2bus.snoop_fanout::mean            0.001938                       # Request fanout histogram
system.tol2bus.snoop_fanout::stdev           0.043976                       # Request fanout histogram
system.tol2bus.snoop_fanout::underflows             0      0.00%      0.00% # Request fanout histogram
system.tol2bus.snoop_fanout::0                 909643     99.81%     99.81% # Request fanout histogram
system.tol2bus.snoop_fanout::1                   1766      0.19%    100.00% # Request fanout histogram
system.tol2bus.snoop_fanout::2                      0      0.00%    100.00% # Request fanout histogram
system.tol2bus.snoop_fanout::3                      0      0.00%    100.00% # Request fanout histogram
system.tol2bus.snoop_fanout::4                      0      0.00%    100.00% # Request fanout histogram
system.tol2bus.snoop_fanout::5                      0      0.00%    100.00% # Request fanout histogram
system.tol2bus.snoop_fanout::6                      0      0.00%    100.00% # Request fanout histogram
system.tol2bus.snoop_fanout::7                      0      0.00%    100.00% # Request fanout histogram
system.tol2bus.snoop_fanout::8                      0      0.00%    100.00% # Request fanout histogram
system.tol2bus.snoop_fanout::9                      0      0.00%    100.00% # Request fanout histogram
system.tol2bus.snoop_fanout::10                     0      0.00%    100.00% # Request fanout histogram
system.tol2bus.snoop_fanout::11                     0      0.00%    100.00% # Request fanout histogram
system.tol2bus.snoop_fanout::12                     0      0.00%    100.00% # Request fanout histogram
system.tol2bus.snoop_fanout::13                     0      0.00%    100.00% # Request fanout histogram
system.tol2bus.snoop_fanout::14                     0      0.00%    100.00% # Request fanout histogram
system.tol2bus.snoop_fanout::15                     0      0.00%    100.00% # Request fanout histogram
system.tol2bus.snoop_fanout::16                     0      0.00%    100.00% # Request fanout histogram
system.tol2bus.snoop_fanout::17                     0      0.00%    100.00% # Request fanout histogram
system.tol2bus.snoop_fanout::18                     0      0.00%    100.00% # Request fanout histogram
system.tol2bus.snoop_fanout::19                     0      0.00%    100.00% # Request fanout histogram
system.tol2bus.snoop_fanout::20                     0      0.00%    100.00% # Request fanout histogram
system.tol2bus.snoop_fanout::21                     0      0.00%    100.00% # Request fanout histogram
system.tol2bus.snoop_fanout::22                     0      0.00%    100.00% # Request fanout histogram
system.tol2bus.snoop_fanout::23                     0      0.00%    100.00% # Request fanout histogram
system.tol2bus.snoop_fanout::24                     0      0.00%    100.00% # Request fanout histogram
system.tol2bus.snoop_fanout::overflows              0      0.00%    100.00% # Request fanout histogram
system.tol2bus.snoop_fanout::min_value              0                       # Request fanout histogram
system.tol2bus.snoop_fanout::max_value              1                       # Request fanout histogram
system.tol2bus.snoop_fanout::total             911409                       # Request fanout histogram
system.tol2bus.reqLayer0.occupancy         1014545500                       # Layer occupancy (ticks)
system.tol2bus.reqLayer0.utilization              6.6                       # Layer utilization (%)
system.tol2bus.respLayer0.occupancy              6000                       # Layer occupancy (ticks)
system.tol2bus.respLayer0.utilization             0.0                       # Layer utilization (%)
system.tol2bus.respLayer1.occupancy        1250826000                       # Layer occupancy (ticks)
system.tol2bus.respLayer1.utilization             8.2                       # Layer utilization (%)

---------- End Simulation Statistics   ----------
