
---------- Begin Simulation Statistics ----------
sim_seconds                                  0.015267                       # Number of seconds simulated
sim_ticks                                 15267344125                       # Number of ticks simulated
final_tick                               3648895245875                       # Number of ticks from beginning of simulation (restored from checkpoints and never reset)
sim_freq                                 1000000000000                       # Frequency of simulated ticks
host_inst_rate                               54773961                       # Simulator instruction rate (inst/s)
host_op_rate                                101925742                       # Simulator op (including micro ops) rate (op/s)
host_tick_rate                              141739729                       # Simulator tick rate (ticks/s)
host_mem_usage                                3428828                       # Number of bytes of host memory used
host_seconds                                   107.71                       # Real time elapsed on the host
sim_insts                                  5899917277                       # Number of instructions simulated
sim_ops                                   10978821381                       # Number of ops (including micro ops) simulated
system.voltage_domain.voltage                       1                       # Voltage in Volts
system.clk_domain.clock                          1000                       # Clock period in ticks
system.mem_ctrls.pwrStateResidencyTicks::UNDEFINED  15267344125                       # Cumulative time (in ticks) in various power states
system.mem_ctrls.bytes_read::cpu0.inst            128                       # Number of bytes read from this memory
system.mem_ctrls.bytes_read::cpu0.data        3590784                       # Number of bytes read from this memory
system.mem_ctrls.bytes_read::total            3590912                       # Number of bytes read from this memory
system.mem_ctrls.bytes_inst_read::cpu0.inst          128                       # Number of instructions bytes read from this memory
system.mem_ctrls.bytes_inst_read::total           128                       # Number of instructions bytes read from this memory
system.mem_ctrls.bytes_written::writebacks       507840                       # Number of bytes written to this memory
system.mem_ctrls.bytes_written::total          507840                       # Number of bytes written to this memory
system.mem_ctrls.num_reads::cpu0.inst               2                       # Number of read requests responded to by this memory
system.mem_ctrls.num_reads::cpu0.data           56106                       # Number of read requests responded to by this memory
system.mem_ctrls.num_reads::total               56108                       # Number of read requests responded to by this memory
system.mem_ctrls.num_writes::writebacks          7935                       # Number of write requests responded to by this memory
system.mem_ctrls.num_writes::total               7935                       # Number of write requests responded to by this memory
system.mem_ctrls.bw_read::cpu0.inst              8384                       # Total read bandwidth from this memory (bytes/s)
system.mem_ctrls.bw_read::cpu0.data         235193755                       # Total read bandwidth from this memory (bytes/s)
system.mem_ctrls.bw_read::total             235202139                       # Total read bandwidth from this memory (bytes/s)
system.mem_ctrls.bw_inst_read::cpu0.inst         8384                       # Instruction read bandwidth from this memory (bytes/s)
system.mem_ctrls.bw_inst_read::total             8384                       # Instruction read bandwidth from this memory (bytes/s)
system.mem_ctrls.bw_write::writebacks        33263153                       # Write bandwidth from this memory (bytes/s)
system.mem_ctrls.bw_write::total             33263153                       # Write bandwidth from this memory (bytes/s)
system.mem_ctrls.bw_total::writebacks        33263153                       # Total bandwidth to/from this memory (bytes/s)
system.mem_ctrls.bw_total::cpu0.inst             8384                       # Total bandwidth to/from this memory (bytes/s)
system.mem_ctrls.bw_total::cpu0.data        235193755                       # Total bandwidth to/from this memory (bytes/s)
system.mem_ctrls.bw_total::total            268465292                       # Total bandwidth to/from this memory (bytes/s)
system.mem_ctrls.readReqs                       56108                       # Number of read requests accepted
system.mem_ctrls.writeReqs                       7935                       # Number of write requests accepted
system.mem_ctrls.readBursts                     56108                       # Number of DRAM read bursts, including those serviced by the write queue
system.mem_ctrls.writeBursts                     7935                       # Number of DRAM write bursts, including those merged in the write queue
system.mem_ctrls.bytesReadDRAM                3576640                       # Total number of bytes read from DRAM
system.mem_ctrls.bytesReadWrQ                   14272                       # Total number of bytes read from write queue
system.mem_ctrls.bytesWritten                  507904                       # Total number of bytes written to DRAM
system.mem_ctrls.bytesReadSys                 3590912                       # Total read bytes from the system interface side
system.mem_ctrls.bytesWrittenSys               507840                       # Total written bytes from the system interface side
system.mem_ctrls.servicedByWrQ                    223                       # Number of DRAM read bursts serviced by the write queue
system.mem_ctrls.mergedWrBursts                     0                       # Number of DRAM write bursts merged with an existing one
system.mem_ctrls.neitherReadNorWriteReqs            0                       # Number of requests that are neither read nor write
system.mem_ctrls.perBankRdBursts::0              2790                       # Per bank write bursts
system.mem_ctrls.perBankRdBursts::1              2864                       # Per bank write bursts
system.mem_ctrls.perBankRdBursts::2              3336                       # Per bank write bursts
system.mem_ctrls.perBankRdBursts::3              4488                       # Per bank write bursts
system.mem_ctrls.perBankRdBursts::4              4967                       # Per bank write bursts
system.mem_ctrls.perBankRdBursts::5              4672                       # Per bank write bursts
system.mem_ctrls.perBankRdBursts::6              4287                       # Per bank write bursts
system.mem_ctrls.perBankRdBursts::7              3560                       # Per bank write bursts
system.mem_ctrls.perBankRdBursts::8              3540                       # Per bank write bursts
system.mem_ctrls.perBankRdBursts::9              3337                       # Per bank write bursts
system.mem_ctrls.perBankRdBursts::10             3415                       # Per bank write bursts
system.mem_ctrls.perBankRdBursts::11             3060                       # Per bank write bursts
system.mem_ctrls.perBankRdBursts::12             3179                       # Per bank write bursts
system.mem_ctrls.perBankRdBursts::13             2941                       # Per bank write bursts
system.mem_ctrls.perBankRdBursts::14             2762                       # Per bank write bursts
system.mem_ctrls.perBankRdBursts::15             2687                       # Per bank write bursts
system.mem_ctrls.perBankWrBursts::0               371                       # Per bank write bursts
system.mem_ctrls.perBankWrBursts::1               441                       # Per bank write bursts
system.mem_ctrls.perBankWrBursts::2               514                       # Per bank write bursts
system.mem_ctrls.perBankWrBursts::3               676                       # Per bank write bursts
system.mem_ctrls.perBankWrBursts::4               572                       # Per bank write bursts
system.mem_ctrls.perBankWrBursts::5               640                       # Per bank write bursts
system.mem_ctrls.perBankWrBursts::6               568                       # Per bank write bursts
system.mem_ctrls.perBankWrBursts::7               598                       # Per bank write bursts
system.mem_ctrls.perBankWrBursts::8               585                       # Per bank write bursts
system.mem_ctrls.perBankWrBursts::9               527                       # Per bank write bursts
system.mem_ctrls.perBankWrBursts::10              625                       # Per bank write bursts
system.mem_ctrls.perBankWrBursts::11              531                       # Per bank write bursts
system.mem_ctrls.perBankWrBursts::12              423                       # Per bank write bursts
system.mem_ctrls.perBankWrBursts::13              281                       # Per bank write bursts
system.mem_ctrls.perBankWrBursts::14              276                       # Per bank write bursts
system.mem_ctrls.perBankWrBursts::15              308                       # Per bank write bursts
system.mem_ctrls.numRdRetry                         0                       # Number of times read queue was full causing retry
system.mem_ctrls.numWrRetry                         0                       # Number of times write queue was full causing retry
system.mem_ctrls.totGap                   15272313000                       # Total gap between requests
system.mem_ctrls.readPktSize::0                     0                       # Read request sizes (log2)
system.mem_ctrls.readPktSize::1                     0                       # Read request sizes (log2)
system.mem_ctrls.readPktSize::2                     0                       # Read request sizes (log2)
system.mem_ctrls.readPktSize::3                     0                       # Read request sizes (log2)
system.mem_ctrls.readPktSize::4                     0                       # Read request sizes (log2)
system.mem_ctrls.readPktSize::5                     0                       # Read request sizes (log2)
system.mem_ctrls.readPktSize::6                 56108                       # Read request sizes (log2)
system.mem_ctrls.writePktSize::0                    0                       # Write request sizes (log2)
system.mem_ctrls.writePktSize::1                    0                       # Write request sizes (log2)
system.mem_ctrls.writePktSize::2                    0                       # Write request sizes (log2)
system.mem_ctrls.writePktSize::3                    0                       # Write request sizes (log2)
system.mem_ctrls.writePktSize::4                    0                       # Write request sizes (log2)
system.mem_ctrls.writePktSize::5                    0                       # Write request sizes (log2)
system.mem_ctrls.writePktSize::6                 7935                       # Write request sizes (log2)
system.mem_ctrls.rdQLenPdf::0                   46021                       # What read queue length does an incoming req see
system.mem_ctrls.rdQLenPdf::1                    9038                       # What read queue length does an incoming req see
system.mem_ctrls.rdQLenPdf::2                     776                       # What read queue length does an incoming req see
system.mem_ctrls.rdQLenPdf::3                      50                       # What read queue length does an incoming req see
system.mem_ctrls.rdQLenPdf::4                       0                       # What read queue length does an incoming req see
system.mem_ctrls.rdQLenPdf::5                       0                       # What read queue length does an incoming req see
system.mem_ctrls.rdQLenPdf::6                       0                       # What read queue length does an incoming req see
system.mem_ctrls.rdQLenPdf::7                       0                       # What read queue length does an incoming req see
system.mem_ctrls.rdQLenPdf::8                       0                       # What read queue length does an incoming req see
system.mem_ctrls.rdQLenPdf::9                       0                       # What read queue length does an incoming req see
system.mem_ctrls.rdQLenPdf::10                      0                       # What read queue length does an incoming req see
system.mem_ctrls.rdQLenPdf::11                      0                       # What read queue length does an incoming req see
system.mem_ctrls.rdQLenPdf::12                      0                       # What read queue length does an incoming req see
system.mem_ctrls.rdQLenPdf::13                      0                       # What read queue length does an incoming req see
system.mem_ctrls.rdQLenPdf::14                      0                       # What read queue length does an incoming req see
system.mem_ctrls.rdQLenPdf::15                      0                       # What read queue length does an incoming req see
system.mem_ctrls.rdQLenPdf::16                      0                       # What read queue length does an incoming req see
system.mem_ctrls.rdQLenPdf::17                      0                       # What read queue length does an incoming req see
system.mem_ctrls.rdQLenPdf::18                      0                       # What read queue length does an incoming req see
system.mem_ctrls.rdQLenPdf::19                      0                       # What read queue length does an incoming req see
system.mem_ctrls.rdQLenPdf::20                      0                       # What read queue length does an incoming req see
system.mem_ctrls.rdQLenPdf::21                      0                       # What read queue length does an incoming req see
system.mem_ctrls.rdQLenPdf::22                      0                       # What read queue length does an incoming req see
system.mem_ctrls.rdQLenPdf::23                      0                       # What read queue length does an incoming req see
system.mem_ctrls.rdQLenPdf::24                      0                       # What read queue length does an incoming req see
system.mem_ctrls.rdQLenPdf::25                      0                       # What read queue length does an incoming req see
system.mem_ctrls.rdQLenPdf::26                      0                       # What read queue length does an incoming req see
system.mem_ctrls.rdQLenPdf::27                      0                       # What read queue length does an incoming req see
system.mem_ctrls.rdQLenPdf::28                      0                       # What read queue length does an incoming req see
system.mem_ctrls.rdQLenPdf::29                      0                       # What read queue length does an incoming req see
system.mem_ctrls.rdQLenPdf::30                      0                       # What read queue length does an incoming req see
system.mem_ctrls.rdQLenPdf::31                      0                       # What read queue length does an incoming req see
system.mem_ctrls.wrQLenPdf::0                       0                       # What write queue length does an incoming req see
system.mem_ctrls.wrQLenPdf::1                       0                       # What write queue length does an incoming req see
system.mem_ctrls.wrQLenPdf::2                       0                       # What write queue length does an incoming req see
system.mem_ctrls.wrQLenPdf::3                       0                       # What write queue length does an incoming req see
system.mem_ctrls.wrQLenPdf::4                       0                       # What write queue length does an incoming req see
system.mem_ctrls.wrQLenPdf::5                       0                       # What write queue length does an incoming req see
system.mem_ctrls.wrQLenPdf::6                       0                       # What write queue length does an incoming req see
system.mem_ctrls.wrQLenPdf::7                       0                       # What write queue length does an incoming req see
system.mem_ctrls.wrQLenPdf::8                       0                       # What write queue length does an incoming req see
system.mem_ctrls.wrQLenPdf::9                       0                       # What write queue length does an incoming req see
system.mem_ctrls.wrQLenPdf::10                      0                       # What write queue length does an incoming req see
system.mem_ctrls.wrQLenPdf::11                      0                       # What write queue length does an incoming req see
system.mem_ctrls.wrQLenPdf::12                      0                       # What write queue length does an incoming req see
system.mem_ctrls.wrQLenPdf::13                      0                       # What write queue length does an incoming req see
system.mem_ctrls.wrQLenPdf::14                      0                       # What write queue length does an incoming req see
system.mem_ctrls.wrQLenPdf::15                    151                       # What write queue length does an incoming req see
system.mem_ctrls.wrQLenPdf::16                    156                       # What write queue length does an incoming req see
system.mem_ctrls.wrQLenPdf::17                    447                       # What write queue length does an incoming req see
system.mem_ctrls.wrQLenPdf::18                    475                       # What write queue length does an incoming req see
system.mem_ctrls.wrQLenPdf::19                    478                       # What write queue length does an incoming req see
system.mem_ctrls.wrQLenPdf::20                    477                       # What write queue length does an incoming req see
system.mem_ctrls.wrQLenPdf::21                    477                       # What write queue length does an incoming req see
system.mem_ctrls.wrQLenPdf::22                    478                       # What write queue length does an incoming req see
system.mem_ctrls.wrQLenPdf::23                    478                       # What write queue length does an incoming req see
system.mem_ctrls.wrQLenPdf::24                    479                       # What write queue length does an incoming req see
system.mem_ctrls.wrQLenPdf::25                    477                       # What write queue length does an incoming req see
system.mem_ctrls.wrQLenPdf::26                    479                       # What write queue length does an incoming req see
system.mem_ctrls.wrQLenPdf::27                    478                       # What write queue length does an incoming req see
system.mem_ctrls.wrQLenPdf::28                    482                       # What write queue length does an incoming req see
system.mem_ctrls.wrQLenPdf::29                    480                       # What write queue length does an incoming req see
system.mem_ctrls.wrQLenPdf::30                    487                       # What write queue length does an incoming req see
system.mem_ctrls.wrQLenPdf::31                    477                       # What write queue length does an incoming req see
system.mem_ctrls.wrQLenPdf::32                    479                       # What write queue length does an incoming req see
system.mem_ctrls.wrQLenPdf::33                      0                       # What write queue length does an incoming req see
system.mem_ctrls.wrQLenPdf::34                      0                       # What write queue length does an incoming req see
system.mem_ctrls.wrQLenPdf::35                      0                       # What write queue length does an incoming req see
system.mem_ctrls.wrQLenPdf::36                      0                       # What write queue length does an incoming req see
system.mem_ctrls.wrQLenPdf::37                      0                       # What write queue length does an incoming req see
system.mem_ctrls.wrQLenPdf::38                      0                       # What write queue length does an incoming req see
system.mem_ctrls.wrQLenPdf::39                      0                       # What write queue length does an incoming req see
system.mem_ctrls.wrQLenPdf::40                      0                       # What write queue length does an incoming req see
system.mem_ctrls.wrQLenPdf::41                      0                       # What write queue length does an incoming req see
system.mem_ctrls.wrQLenPdf::42                      0                       # What write queue length does an incoming req see
system.mem_ctrls.wrQLenPdf::43                      0                       # What write queue length does an incoming req see
system.mem_ctrls.wrQLenPdf::44                      0                       # What write queue length does an incoming req see
system.mem_ctrls.wrQLenPdf::45                      0                       # What write queue length does an incoming req see
system.mem_ctrls.wrQLenPdf::46                      0                       # What write queue length does an incoming req see
system.mem_ctrls.wrQLenPdf::47                      0                       # What write queue length does an incoming req see
system.mem_ctrls.wrQLenPdf::48                      0                       # What write queue length does an incoming req see
system.mem_ctrls.wrQLenPdf::49                      0                       # What write queue length does an incoming req see
system.mem_ctrls.wrQLenPdf::50                      0                       # What write queue length does an incoming req see
system.mem_ctrls.wrQLenPdf::51                      0                       # What write queue length does an incoming req see
system.mem_ctrls.wrQLenPdf::52                      0                       # What write queue length does an incoming req see
system.mem_ctrls.wrQLenPdf::53                      0                       # What write queue length does an incoming req see
system.mem_ctrls.wrQLenPdf::54                      0                       # What write queue length does an incoming req see
system.mem_ctrls.wrQLenPdf::55                      0                       # What write queue length does an incoming req see
system.mem_ctrls.wrQLenPdf::56                      0                       # What write queue length does an incoming req see
system.mem_ctrls.wrQLenPdf::57                      0                       # What write queue length does an incoming req see
system.mem_ctrls.wrQLenPdf::58                      0                       # What write queue length does an incoming req see
system.mem_ctrls.wrQLenPdf::59                      0                       # What write queue length does an incoming req see
system.mem_ctrls.wrQLenPdf::60                      0                       # What write queue length does an incoming req see
system.mem_ctrls.wrQLenPdf::61                      0                       # What write queue length does an incoming req see
system.mem_ctrls.wrQLenPdf::62                      0                       # What write queue length does an incoming req see
system.mem_ctrls.wrQLenPdf::63                      0                       # What write queue length does an incoming req see
system.mem_ctrls.bytesPerActivate::samples        46139                       # Bytes accessed per row activation
system.mem_ctrls.bytesPerActivate::mean     88.522768                       # Bytes accessed per row activation
system.mem_ctrls.bytesPerActivate::gmean    80.528002                       # Bytes accessed per row activation
system.mem_ctrls.bytesPerActivate::stdev    47.170105                       # Bytes accessed per row activation
system.mem_ctrls.bytesPerActivate::64-127        33498     72.60%     72.60% # Bytes accessed per row activation
system.mem_ctrls.bytesPerActivate::128-191         9075     19.67%     92.27% # Bytes accessed per row activation
system.mem_ctrls.bytesPerActivate::192-255         2507      5.43%     97.70% # Bytes accessed per row activation
system.mem_ctrls.bytesPerActivate::256-319          756      1.64%     99.34% # Bytes accessed per row activation
system.mem_ctrls.bytesPerActivate::320-383          224      0.49%     99.83% # Bytes accessed per row activation
system.mem_ctrls.bytesPerActivate::384-447           57      0.12%     99.95% # Bytes accessed per row activation
system.mem_ctrls.bytesPerActivate::448-511           17      0.04%     99.99% # Bytes accessed per row activation
system.mem_ctrls.bytesPerActivate::512-575            3      0.01%    100.00% # Bytes accessed per row activation
system.mem_ctrls.bytesPerActivate::640-703            2      0.00%    100.00% # Bytes accessed per row activation
system.mem_ctrls.bytesPerActivate::total        46139                       # Bytes accessed per row activation
system.mem_ctrls.rdPerTurnAround::samples          476                       # Reads before turning the bus around for writes
system.mem_ctrls.rdPerTurnAround::mean     117.403361                       # Reads before turning the bus around for writes
system.mem_ctrls.rdPerTurnAround::gmean    111.902700                       # Reads before turning the bus around for writes
system.mem_ctrls.rdPerTurnAround::stdev     34.968755                       # Reads before turning the bus around for writes
system.mem_ctrls.rdPerTurnAround::40-47             5      1.05%      1.05% # Reads before turning the bus around for writes
system.mem_ctrls.rdPerTurnAround::48-55             9      1.89%      2.94% # Reads before turning the bus around for writes
system.mem_ctrls.rdPerTurnAround::56-63            19      3.99%      6.93% # Reads before turning the bus around for writes
system.mem_ctrls.rdPerTurnAround::64-71            13      2.73%      9.66% # Reads before turning the bus around for writes
system.mem_ctrls.rdPerTurnAround::72-79            19      3.99%     13.66% # Reads before turning the bus around for writes
system.mem_ctrls.rdPerTurnAround::80-87            40      8.40%     22.06% # Reads before turning the bus around for writes
system.mem_ctrls.rdPerTurnAround::88-95            31      6.51%     28.57% # Reads before turning the bus around for writes
system.mem_ctrls.rdPerTurnAround::96-103           33      6.93%     35.50% # Reads before turning the bus around for writes
system.mem_ctrls.rdPerTurnAround::104-111           36      7.56%     43.07% # Reads before turning the bus around for writes
system.mem_ctrls.rdPerTurnAround::112-119           44      9.24%     52.31% # Reads before turning the bus around for writes
system.mem_ctrls.rdPerTurnAround::120-127           51     10.71%     63.03% # Reads before turning the bus around for writes
system.mem_ctrls.rdPerTurnAround::128-135           34      7.14%     70.17% # Reads before turning the bus around for writes
system.mem_ctrls.rdPerTurnAround::136-143           37      7.77%     77.94% # Reads before turning the bus around for writes
system.mem_ctrls.rdPerTurnAround::144-151           28      5.88%     83.82% # Reads before turning the bus around for writes
system.mem_ctrls.rdPerTurnAround::152-159           24      5.04%     88.87% # Reads before turning the bus around for writes
system.mem_ctrls.rdPerTurnAround::160-167           17      3.57%     92.44% # Reads before turning the bus around for writes
system.mem_ctrls.rdPerTurnAround::168-175            8      1.68%     94.12% # Reads before turning the bus around for writes
system.mem_ctrls.rdPerTurnAround::176-183           13      2.73%     96.85% # Reads before turning the bus around for writes
system.mem_ctrls.rdPerTurnAround::184-191            7      1.47%     98.32% # Reads before turning the bus around for writes
system.mem_ctrls.rdPerTurnAround::192-199            2      0.42%     98.74% # Reads before turning the bus around for writes
system.mem_ctrls.rdPerTurnAround::208-215            4      0.84%     99.58% # Reads before turning the bus around for writes
system.mem_ctrls.rdPerTurnAround::224-231            1      0.21%     99.79% # Reads before turning the bus around for writes
system.mem_ctrls.rdPerTurnAround::232-239            1      0.21%    100.00% # Reads before turning the bus around for writes
system.mem_ctrls.rdPerTurnAround::total           476                       # Reads before turning the bus around for writes
system.mem_ctrls.wrPerTurnAround::samples          476                       # Writes before turning the bus around for reads
system.mem_ctrls.wrPerTurnAround::mean      16.672269                       # Writes before turning the bus around for reads
system.mem_ctrls.wrPerTurnAround::gmean     16.644501                       # Writes before turning the bus around for reads
system.mem_ctrls.wrPerTurnAround::stdev      0.978585                       # Writes before turning the bus around for reads
system.mem_ctrls.wrPerTurnAround::16              319     67.02%     67.02% # Writes before turning the bus around for reads
system.mem_ctrls.wrPerTurnAround::17                6      1.26%     68.28% # Writes before turning the bus around for reads
system.mem_ctrls.wrPerTurnAround::18              139     29.20%     97.48% # Writes before turning the bus around for reads
system.mem_ctrls.wrPerTurnAround::19               12      2.52%    100.00% # Writes before turning the bus around for reads
system.mem_ctrls.wrPerTurnAround::total           476                       # Writes before turning the bus around for reads
system.mem_ctrls.totQLat                   1722514000                       # Total ticks spent queuing
system.mem_ctrls.totMemAccLat              2770357750                       # Total ticks spent from burst creation until serviced by the DRAM
system.mem_ctrls.totBusLat                  279425000                       # Total ticks spent in databus transfers
system.mem_ctrls.avgQLat                     30822.47                       # Average queueing delay per DRAM burst
system.mem_ctrls.avgBusLat                    5000.00                       # Average bus latency per DRAM burst
system.mem_ctrls.avgMemAccLat                49572.47                       # Average memory access latency per DRAM burst
system.mem_ctrls.avgRdBW                       234.27                       # Average DRAM read bandwidth in MiByte/s
system.mem_ctrls.avgWrBW                        33.27                       # Average achieved write bandwidth in MiByte/s
system.mem_ctrls.avgRdBWSys                    235.20                       # Average system read bandwidth in MiByte/s
system.mem_ctrls.avgWrBWSys                     33.26                       # Average system write bandwidth in MiByte/s
system.mem_ctrls.peakBW                      12800.00                       # Theoretical peak bandwidth in MiByte/s
system.mem_ctrls.busUtil                         2.09                       # Data bus utilization in percentage
system.mem_ctrls.busUtilRead                     1.83                       # Data bus utilization in percentage for reads
system.mem_ctrls.busUtilWrite                    0.26                       # Data bus utilization in percentage for writes
system.mem_ctrls.avgRdQLen                       1.12                       # Average read queue length when enqueuing
system.mem_ctrls.avgWrQLen                      25.15                       # Average write queue length when enqueuing
system.mem_ctrls.readRowHits                    15973                       # Number of row buffer hits during reads
system.mem_ctrls.writeRowHits                    1706                       # Number of row buffer hits during writes
system.mem_ctrls.readRowHitRate                 28.58                       # Row buffer hit rate for reads
system.mem_ctrls.writeRowHitRate                21.50                       # Row buffer hit rate for writes
system.mem_ctrls.avgGap                     238469.67                       # Average gap between requests
system.mem_ctrls.pageHitRate                    27.70                       # Row buffer hit rate, read and write combined
system.mem_ctrls_0.actEnergy                182891100                       # Energy for activate commands per rank (pJ)
system.mem_ctrls_0.preEnergy                 97205130                       # Energy for precharge commands per rank (pJ)
system.mem_ctrls_0.readEnergy               221082960                       # Energy for read commands per rank (pJ)
system.mem_ctrls_0.writeEnergy               22863600                       # Energy for write commands per rank (pJ)
system.mem_ctrls_0.refreshEnergy         1243416720.000000                       # Energy for refresh commands per rank (pJ)
system.mem_ctrls_0.actBackEnergy            861483750                       # Energy for active background per rank (pJ)
system.mem_ctrls_0.preBackEnergy             39428160                       # Energy for precharge background per rank (pJ)
system.mem_ctrls_0.actPowerDownEnergy      4533434580                       # Energy for active power-down per rank (pJ)
system.mem_ctrls_0.prePowerDownEnergy      1057758720                       # Energy for precharge power-down per rank (pJ)
system.mem_ctrls_0.selfRefreshEnergy        220169280                       # Energy for self refresh per rank (pJ)
system.mem_ctrls_0.totalEnergy             8479844160                       # Total energy per rank (pJ)
system.mem_ctrls_0.averagePower            555.423660                       # Core power per rank (mW)
system.mem_ctrls_0.totalIdleTime          13274530750                       # Total Idle time Per DRAM Rank
system.mem_ctrls_0.memoryStateTime::IDLE     48601500                       # Time in different power states
system.mem_ctrls_0.memoryStateTime::REF     526916000                       # Time in different power states
system.mem_ctrls_0.memoryStateTime::SREF    578882500                       # Time in different power states
system.mem_ctrls_0.memoryStateTime::PRE_PDN   2754524500                       # Time in different power states
system.mem_ctrls_0.memoryStateTime::ACT    1416616000                       # Time in different power states
system.mem_ctrls_0.memoryStateTime::ACT_PDN   9941803625                       # Time in different power states
system.mem_ctrls_1.actEnergy                146562780                       # Energy for activate commands per rank (pJ)
system.mem_ctrls_1.preEnergy                 77892375                       # Energy for precharge commands per rank (pJ)
system.mem_ctrls_1.readEnergy               177935940                       # Energy for read commands per rank (pJ)
system.mem_ctrls_1.writeEnergy               18562320                       # Energy for write commands per rank (pJ)
system.mem_ctrls_1.refreshEnergy         1233582480.000000                       # Energy for refresh commands per rank (pJ)
system.mem_ctrls_1.actBackEnergy            769138620                       # Energy for active background per rank (pJ)
system.mem_ctrls_1.preBackEnergy             41405760                       # Energy for precharge background per rank (pJ)
system.mem_ctrls_1.actPowerDownEnergy      4396069710                       # Energy for active power-down per rank (pJ)
system.mem_ctrls_1.prePowerDownEnergy      1130484960                       # Energy for precharge power-down per rank (pJ)
system.mem_ctrls_1.selfRefreshEnergy        308729520                       # Energy for self refresh per rank (pJ)
system.mem_ctrls_1.totalEnergy             8300574825                       # Total energy per rank (pJ)
system.mem_ctrls_1.averagePower            543.681649                       # Core power per rank (mW)
system.mem_ctrls_1.totalIdleTime          13472264000                       # Total Idle time Per DRAM Rank
system.mem_ctrls_1.memoryStateTime::IDLE     55132500                       # Time in different power states
system.mem_ctrls_1.memoryStateTime::REF     522935250                       # Time in different power states
system.mem_ctrls_1.memoryStateTime::SREF    887840250                       # Time in different power states
system.mem_ctrls_1.memoryStateTime::PRE_PDN   2944009750                       # Time in different power states
system.mem_ctrls_1.memoryStateTime::ACT    1216806000                       # Time in different power states
system.mem_ctrls_1.memoryStateTime::ACT_PDN   9640620375                       # Time in different power states
system.pwrStateResidencyTicks::UNDEFINED  15267344125                       # Cumulative time (in ticks) in various power states
system.cpu0.branchPred.lookups                5679537                       # Number of BP lookups
system.cpu0.branchPred.condPredicted          5679537                       # Number of conditional branches predicted
system.cpu0.branchPred.condIncorrect           241093                       # Number of conditional branches incorrect
system.cpu0.branchPred.BTBLookups             4502452                       # Number of BTB lookups
system.cpu0.branchPred.BTBHits                      0                       # Number of BTB hits
system.cpu0.branchPred.BTBCorrect                   0                       # Number of correct BTB predictions (this stat may not work properly.
system.cpu0.branchPred.BTBHitPct             0.000000                       # BTB Hit Percentage
system.cpu0.branchPred.usedRAS                 146327                       # Number of times the RAS was used to get a target.
system.cpu0.branchPred.RASInCorrect             21055                       # Number of incorrect RAS predictions.
system.cpu0.branchPred.indirectLookups        4502452                       # Number of indirect predictor lookups.
system.cpu0.branchPred.indirectHits           2411915                       # Number of indirect target hits.
system.cpu0.branchPred.indirectMisses         2090537                       # Number of indirect misses.
system.cpu0.branchPredindirectMispredicted        79354                       # Number of mispredicted indirect branches.
system.cpu_voltage_domain.voltage                   1                       # Voltage in Volts
system.cpu_clk_domain.clock                       500                       # Clock period in ticks
system.cpu0.dtb.walker.pwrStateResidencyTicks::UNDEFINED  15267344125                       # Cumulative time (in ticks) in various power states
system.cpu0.dtb.rdAccesses                    2712332                       # TLB accesses on read requests
system.cpu0.dtb.wrAccesses                     162887                       # TLB accesses on write requests
system.cpu0.dtb.rdMisses                       568395                       # TLB misses on read requests
system.cpu0.dtb.wrMisses                         3111                       # TLB misses on write requests
system.cpu0.apic_clk_domain.clock                8000                       # Clock period in ticks
system.cpu0.interrupts.pwrStateResidencyTicks::UNDEFINED  15267344125                       # Cumulative time (in ticks) in various power states
system.cpu0.itb.walker.pwrStateResidencyTicks::UNDEFINED  15267344125                       # Cumulative time (in ticks) in various power states
system.cpu0.itb.rdAccesses                          0                       # TLB accesses on read requests
system.cpu0.itb.wrAccesses                    4764501                       # TLB accesses on write requests
system.cpu0.itb.rdMisses                            0                       # TLB misses on read requests
system.cpu0.itb.wrMisses                        15720                       # TLB misses on write requests
system.cpu0.workload.numSyscalls                    0                       # Number of system calls
system.cpu0.pwrStateResidencyTicks::ON    15267344125                       # Cumulative time (in ticks) in various power states
system.cpu0.numCycles                        30534688                       # number of cpu cycles simulated
system.cpu0.numWorkItemsStarted                     0                       # number of work items this cpu started
system.cpu0.numWorkItemsCompleted                   0                       # number of work items this cpu completed
system.cpu0.fetch.icacheStallCycles           4868265                       # Number of cycles fetch is stalled on an Icache miss
system.cpu0.fetch.Insts                      16314502                       # Number of instructions fetch has processed
system.cpu0.fetch.Branches                    5679537                       # Number of branches that fetch encountered
system.cpu0.fetch.predictedBranches           2558242                       # Number of branches that fetch has predicted taken
system.cpu0.fetch.Cycles                     25282204                       # Number of cycles fetch has run and was not squashing or blocked
system.cpu0.fetch.SquashCycles                 491616                       # Number of cycles fetch has spent squashing
system.cpu0.fetch.TlbCycles                      2891                       # Number of cycles fetch has spent waiting for tlb
system.cpu0.fetch.MiscStallCycles                3365                       # Number of cycles fetch has spent waiting on interrupts, or bad addresses, or out of MSHRs
system.cpu0.fetch.PendingTrapStallCycles       115656                       # Number of stall cycles due to pending traps
system.cpu0.fetch.CacheLines                  4748781                       # Number of cache lines fetched
system.cpu0.fetch.IcacheSquashes                39723                       # Number of outstanding Icache misses that were squashed
system.cpu0.fetch.ItlbSquashes                     21                       # Number of outstanding ITLB misses that were squashed
system.cpu0.fetch.rateDist::samples          30518189                       # Number of instructions fetched each cycle (Total)
system.cpu0.fetch.rateDist::mean             1.074179                       # Number of instructions fetched each cycle (Total)
system.cpu0.fetch.rateDist::stdev            2.453968                       # Number of instructions fetched each cycle (Total)
system.cpu0.fetch.rateDist::underflows              0      0.00%      0.00% # Number of instructions fetched each cycle (Total)
system.cpu0.fetch.rateDist::0                24181146     79.24%     79.24% # Number of instructions fetched each cycle (Total)
system.cpu0.fetch.rateDist::1                   76530      0.25%     79.49% # Number of instructions fetched each cycle (Total)
system.cpu0.fetch.rateDist::2                 2350919      7.70%     87.19% # Number of instructions fetched each cycle (Total)
system.cpu0.fetch.rateDist::3                   78219      0.26%     87.45% # Number of instructions fetched each cycle (Total)
system.cpu0.fetch.rateDist::4                  432769      1.42%     88.86% # Number of instructions fetched each cycle (Total)
system.cpu0.fetch.rateDist::5                  185385      0.61%     89.47% # Number of instructions fetched each cycle (Total)
system.cpu0.fetch.rateDist::6                  262770      0.86%     90.33% # Number of instructions fetched each cycle (Total)
system.cpu0.fetch.rateDist::7                   69247      0.23%     90.56% # Number of instructions fetched each cycle (Total)
system.cpu0.fetch.rateDist::8                 2881204      9.44%    100.00% # Number of instructions fetched each cycle (Total)
system.cpu0.fetch.rateDist::overflows               0      0.00%    100.00% # Number of instructions fetched each cycle (Total)
system.cpu0.fetch.rateDist::min_value               0                       # Number of instructions fetched each cycle (Total)
system.cpu0.fetch.rateDist::max_value               8                       # Number of instructions fetched each cycle (Total)
system.cpu0.fetch.rateDist::total            30518189                       # Number of instructions fetched each cycle (Total)
system.cpu0.fetch.branchRate                 0.186003                       # Number of branch fetches per cycle
system.cpu0.fetch.rate                       0.534294                       # Number of inst fetches per cycle
system.cpu0.decode.IdleCycles                 2566502                       # Number of cycles decode is idle
system.cpu0.decode.BlockedCycles             23365186                       # Number of cycles decode is blocked
system.cpu0.decode.RunCycles                  3341657                       # Number of cycles decode is running
system.cpu0.decode.UnblockCycles               999036                       # Number of cycles decode is unblocking
system.cpu0.decode.SquashCycles                245808                       # Number of cycles decode is squashing
system.cpu0.decode.DecodedInsts              27731501                       # Number of instructions handled by decode
system.cpu0.rename.SquashCycles                245808                       # Number of cycles rename is squashing
system.cpu0.rename.IdleCycles                 2944493                       # Number of cycles rename is idle
system.cpu0.rename.BlockCycles               20071118                       # Number of cycles rename is blocking
system.cpu0.rename.serializeStallCycles         55185                       # count of cycles rename stalled for serializing inst
system.cpu0.rename.RunCycles                  3760146                       # Number of cycles rename is running
system.cpu0.rename.UnblockCycles              3441439                       # Number of cycles rename is unblocking
system.cpu0.rename.RenamedInsts              26626679                       # Number of instructions processed by rename
system.cpu0.rename.ROBFullEvents                75804                       # Number of times rename has blocked due to ROB full
system.cpu0.rename.IQFullEvents               3077195                       # Number of times rename has blocked due to IQ full
system.cpu0.rename.LQFullEvents                162471                       # Number of times rename has blocked due to LQ full
system.cpu0.rename.SQFullEvents                 31168                       # Number of times rename has blocked due to SQ full
system.cpu0.rename.RenamedOperands           31717484                       # Number of destination operands rename has renamed
system.cpu0.rename.RenameLookups             74320160                       # Number of register rename lookups that rename has made
system.cpu0.rename.int_rename_lookups        34745667                       # Number of integer rename lookups
system.cpu0.rename.fp_rename_lookups           123643                       # Number of floating rename lookups
system.cpu0.rename.CommittedMaps             11347379                       # Number of HB maps that are committed
system.cpu0.rename.UndoneMaps                20370234                       # Number of HB maps that are undone due to squashing
system.cpu0.rename.serializingInsts              1591                       # count of serializing insts renamed
system.cpu0.rename.tempSerializingInsts          1844                       # count of temporary serializing insts renamed
system.cpu0.rename.skidInsts                  6187751                       # count of insts added to the skid buffer
system.cpu0.memDep0.insertedLoads             4831267                       # Number of loads inserted to the mem dependence unit.
system.cpu0.memDep0.insertedStores             244675                       # Number of stores inserted to the mem dependence unit.
system.cpu0.memDep0.conflictingLoads            15561                       # Number of conflicting loads.
system.cpu0.memDep0.conflictingStores           14512                       # Number of conflicting stores.
system.cpu0.iq.iqInstsAdded                  25215577                       # Number of instructions added to the IQ (excludes non-spec)
system.cpu0.iq.iqNonSpecInstsAdded              15273                       # Number of non-speculative instructions added to the IQ
system.cpu0.iq.iqInstsIssued                 17982017                       # Number of instructions issued
system.cpu0.iq.iqSquashedInstsIssued            23512                       # Number of squashed instructions issued
system.cpu0.iq.iqSquashedInstsExamined       15762145                       # Number of squashed instructions iterated over during squash; mainly for profiling
system.cpu0.iq.iqSquashedOperandsExamined     33599781                       # Number of squashed operands that are examined and possibly removed from graph
system.cpu0.iq.iqSquashedNonSpecRemoved         15273                       # Number of squashed non-spec instructions that were removed
system.cpu0.iq.issued_per_cycle::samples     30518189                       # Number of insts issued each cycle
system.cpu0.iq.issued_per_cycle::mean        0.589223                       # Number of insts issued each cycle
system.cpu0.iq.issued_per_cycle::stdev       1.337940                       # Number of insts issued each cycle
system.cpu0.iq.issued_per_cycle::underflows            0      0.00%      0.00% # Number of insts issued each cycle
system.cpu0.iq.issued_per_cycle::0           23526377     77.09%     77.09% # Number of insts issued each cycle
system.cpu0.iq.issued_per_cycle::1            2515604      8.24%     85.33% # Number of insts issued each cycle
system.cpu0.iq.issued_per_cycle::2            1477616      4.84%     90.17% # Number of insts issued each cycle
system.cpu0.iq.issued_per_cycle::3            1036064      3.39%     93.57% # Number of insts issued each cycle
system.cpu0.iq.issued_per_cycle::4            1125552      3.69%     97.26% # Number of insts issued each cycle
system.cpu0.iq.issued_per_cycle::5             378652      1.24%     98.50% # Number of insts issued each cycle
system.cpu0.iq.issued_per_cycle::6             276548      0.91%     99.40% # Number of insts issued each cycle
system.cpu0.iq.issued_per_cycle::7             105975      0.35%     99.75% # Number of insts issued each cycle
system.cpu0.iq.issued_per_cycle::8              75801      0.25%    100.00% # Number of insts issued each cycle
system.cpu0.iq.issued_per_cycle::overflows            0      0.00%    100.00% # Number of insts issued each cycle
system.cpu0.iq.issued_per_cycle::min_value            0                       # Number of insts issued each cycle
system.cpu0.iq.issued_per_cycle::max_value            8                       # Number of insts issued each cycle
system.cpu0.iq.issued_per_cycle::total       30518189                       # Number of insts issued each cycle
system.cpu0.iq.fu_full::No_OpClass                  0      0.00%      0.00% # attempts to use FU when none available
system.cpu0.iq.fu_full::IntAlu                  40397     72.73%     72.73% # attempts to use FU when none available
system.cpu0.iq.fu_full::IntMult                     0      0.00%     72.73% # attempts to use FU when none available
system.cpu0.iq.fu_full::IntDiv                      0      0.00%     72.73% # attempts to use FU when none available
system.cpu0.iq.fu_full::FloatAdd                 3757      6.76%     79.50% # attempts to use FU when none available
system.cpu0.iq.fu_full::FloatCmp                    0      0.00%     79.50% # attempts to use FU when none available
system.cpu0.iq.fu_full::FloatCvt                    0      0.00%     79.50% # attempts to use FU when none available
system.cpu0.iq.fu_full::FloatMult                   0      0.00%     79.50% # attempts to use FU when none available
system.cpu0.iq.fu_full::FloatMultAcc                0      0.00%     79.50% # attempts to use FU when none available
system.cpu0.iq.fu_full::FloatDiv                    0      0.00%     79.50% # attempts to use FU when none available
system.cpu0.iq.fu_full::FloatMisc                   0      0.00%     79.50% # attempts to use FU when none available
system.cpu0.iq.fu_full::FloatSqrt                   0      0.00%     79.50% # attempts to use FU when none available
system.cpu0.iq.fu_full::SimdAdd                     0      0.00%     79.50% # attempts to use FU when none available
system.cpu0.iq.fu_full::SimdAddAcc                  0      0.00%     79.50% # attempts to use FU when none available
system.cpu0.iq.fu_full::SimdAlu                     0      0.00%     79.50% # attempts to use FU when none available
system.cpu0.iq.fu_full::SimdCmp                     0      0.00%     79.50% # attempts to use FU when none available
system.cpu0.iq.fu_full::SimdCvt                     0      0.00%     79.50% # attempts to use FU when none available
system.cpu0.iq.fu_full::SimdMisc                    0      0.00%     79.50% # attempts to use FU when none available
system.cpu0.iq.fu_full::SimdMult                    0      0.00%     79.50% # attempts to use FU when none available
system.cpu0.iq.fu_full::SimdMultAcc                 0      0.00%     79.50% # attempts to use FU when none available
system.cpu0.iq.fu_full::SimdShift                   0      0.00%     79.50% # attempts to use FU when none available
system.cpu0.iq.fu_full::SimdShiftAcc                0      0.00%     79.50% # attempts to use FU when none available
system.cpu0.iq.fu_full::SimdSqrt                    0      0.00%     79.50% # attempts to use FU when none available
system.cpu0.iq.fu_full::SimdFloatAdd                0      0.00%     79.50% # attempts to use FU when none available
system.cpu0.iq.fu_full::SimdFloatAlu                0      0.00%     79.50% # attempts to use FU when none available
system.cpu0.iq.fu_full::SimdFloatCmp                0      0.00%     79.50% # attempts to use FU when none available
system.cpu0.iq.fu_full::SimdFloatCvt                0      0.00%     79.50% # attempts to use FU when none available
system.cpu0.iq.fu_full::SimdFloatDiv                0      0.00%     79.50% # attempts to use FU when none available
system.cpu0.iq.fu_full::SimdFloatMisc               0      0.00%     79.50% # attempts to use FU when none available
system.cpu0.iq.fu_full::SimdFloatMult               0      0.00%     79.50% # attempts to use FU when none available
system.cpu0.iq.fu_full::SimdFloatMultAcc            0      0.00%     79.50% # attempts to use FU when none available
system.cpu0.iq.fu_full::SimdFloatSqrt               0      0.00%     79.50% # attempts to use FU when none available
system.cpu0.iq.fu_full::MemRead                  9967     17.95%     97.45% # attempts to use FU when none available
system.cpu0.iq.fu_full::MemWrite                  992      1.79%     99.23% # attempts to use FU when none available
system.cpu0.iq.fu_full::FloatMemRead              276      0.50%     99.73% # attempts to use FU when none available
system.cpu0.iq.fu_full::FloatMemWrite             151      0.27%    100.00% # attempts to use FU when none available
system.cpu0.iq.fu_full::IprAccess                   0      0.00%    100.00% # attempts to use FU when none available
system.cpu0.iq.fu_full::InstPrefetch                0      0.00%    100.00% # attempts to use FU when none available
system.cpu0.iq.FU_type_0::No_OpClass            59456      0.33%      0.33% # Type of FU issued
system.cpu0.iq.FU_type_0::IntAlu             14786904     82.23%     82.56% # Type of FU issued
system.cpu0.iq.FU_type_0::IntMult                3008      0.02%     82.58% # Type of FU issued
system.cpu0.iq.FU_type_0::IntDiv                31382      0.17%     82.75% # Type of FU issued
system.cpu0.iq.FU_type_0::FloatAdd              46544      0.26%     83.01% # Type of FU issued
system.cpu0.iq.FU_type_0::FloatCmp                  0      0.00%     83.01% # Type of FU issued
system.cpu0.iq.FU_type_0::FloatCvt                  0      0.00%     83.01% # Type of FU issued
system.cpu0.iq.FU_type_0::FloatMult                 0      0.00%     83.01% # Type of FU issued
system.cpu0.iq.FU_type_0::FloatMultAcc              0      0.00%     83.01% # Type of FU issued
system.cpu0.iq.FU_type_0::FloatDiv                  0      0.00%     83.01% # Type of FU issued
system.cpu0.iq.FU_type_0::FloatMisc                 0      0.00%     83.01% # Type of FU issued
system.cpu0.iq.FU_type_0::FloatSqrt                 0      0.00%     83.01% # Type of FU issued
system.cpu0.iq.FU_type_0::SimdAdd                   0      0.00%     83.01% # Type of FU issued
system.cpu0.iq.FU_type_0::SimdAddAcc                0      0.00%     83.01% # Type of FU issued
system.cpu0.iq.FU_type_0::SimdAlu                   0      0.00%     83.01% # Type of FU issued
system.cpu0.iq.FU_type_0::SimdCmp                   0      0.00%     83.01% # Type of FU issued
system.cpu0.iq.FU_type_0::SimdCvt                   0      0.00%     83.01% # Type of FU issued
system.cpu0.iq.FU_type_0::SimdMisc                  0      0.00%     83.01% # Type of FU issued
system.cpu0.iq.FU_type_0::SimdMult                  0      0.00%     83.01% # Type of FU issued
system.cpu0.iq.FU_type_0::SimdMultAcc               0      0.00%     83.01% # Type of FU issued
system.cpu0.iq.FU_type_0::SimdShift                 0      0.00%     83.01% # Type of FU issued
system.cpu0.iq.FU_type_0::SimdShiftAcc              0      0.00%     83.01% # Type of FU issued
system.cpu0.iq.FU_type_0::SimdSqrt                  0      0.00%     83.01% # Type of FU issued
system.cpu0.iq.FU_type_0::SimdFloatAdd              0      0.00%     83.01% # Type of FU issued
system.cpu0.iq.FU_type_0::SimdFloatAlu              0      0.00%     83.01% # Type of FU issued
system.cpu0.iq.FU_type_0::SimdFloatCmp              0      0.00%     83.01% # Type of FU issued
system.cpu0.iq.FU_type_0::SimdFloatCvt              0      0.00%     83.01% # Type of FU issued
system.cpu0.iq.FU_type_0::SimdFloatDiv              0      0.00%     83.01% # Type of FU issued
system.cpu0.iq.FU_type_0::SimdFloatMisc             0      0.00%     83.01% # Type of FU issued
system.cpu0.iq.FU_type_0::SimdFloatMult             0      0.00%     83.01% # Type of FU issued
system.cpu0.iq.FU_type_0::SimdFloatMultAcc            0      0.00%     83.01% # Type of FU issued
system.cpu0.iq.FU_type_0::SimdFloatSqrt             0      0.00%     83.01% # Type of FU issued
system.cpu0.iq.FU_type_0::MemRead             2870655     15.96%     98.98% # Type of FU issued
system.cpu0.iq.FU_type_0::MemWrite             176073      0.98%     99.96% # Type of FU issued
system.cpu0.iq.FU_type_0::FloatMemRead           7394      0.04%    100.00% # Type of FU issued
system.cpu0.iq.FU_type_0::FloatMemWrite           601      0.00%    100.00% # Type of FU issued
system.cpu0.iq.FU_type_0::IprAccess                 0      0.00%    100.00% # Type of FU issued
system.cpu0.iq.FU_type_0::InstPrefetch              0      0.00%    100.00% # Type of FU issued
system.cpu0.iq.FU_type_0::total              17982017                       # Type of FU issued
system.cpu0.iq.rate                          0.588905                       # Inst issue rate
system.cpu0.iq.fu_busy_cnt                      55540                       # FU busy when requested
system.cpu0.iq.fu_busy_rate                  0.003089                       # FU busy rate (busy events/executed inst)
system.cpu0.iq.int_inst_queue_reads          66446988                       # Number of integer instruction queue reads
system.cpu0.iq.int_inst_queue_writes         40888962                       # Number of integer instruction queue writes
system.cpu0.iq.int_inst_queue_wakeup_accesses     17176226                       # Number of integer instruction queue wakeup accesses
system.cpu0.iq.fp_inst_queue_reads             114288                       # Number of floating instruction queue reads
system.cpu0.iq.fp_inst_queue_writes            104044                       # Number of floating instruction queue writes
system.cpu0.iq.fp_inst_queue_wakeup_accesses        50552                       # Number of floating instruction queue wakeup accesses
system.cpu0.iq.vec_inst_queue_reads                 0                       # Number of vector instruction queue reads
system.cpu0.iq.vec_inst_queue_writes                0                       # Number of vector instruction queue writes
system.cpu0.iq.vec_inst_queue_wakeup_accesses            0                       # Number of vector instruction queue wakeup accesses
system.cpu0.iq.int_alu_accesses              17919245                       # Number of integer alu accesses
system.cpu0.iq.fp_alu_accesses                  58856                       # Number of floating point alu accesses
system.cpu0.iq.vec_alu_accesses                     0                       # Number of vector alu accesses
system.cpu0.iew.lsq.thread0.forwLoads           14788                       # Number of loads that had data forwarded from stores
system.cpu0.iew.lsq.thread0.invAddrLoads            0                       # Number of loads ignored due to an invalid address
system.cpu0.iew.lsq.thread0.squashedLoads      3029864                       # Number of loads squashed
system.cpu0.iew.lsq.thread0.ignoredResponses          559                       # Number of memory responses ignored because the instruction is squashed
system.cpu0.iew.lsq.thread0.memOrderViolation           13                       # Number of memory ordering violations
system.cpu0.iew.lsq.thread0.squashedStores       155331                       # Number of stores squashed
system.cpu0.iew.lsq.thread0.invAddrSwpfs            0                       # Number of software prefetches ignored due to an invalid address
system.cpu0.iew.lsq.thread0.blockedLoads            0                       # Number of blocked loads due to partial load-store forwarding
system.cpu0.iew.lsq.thread0.rescheduledLoads          109                       # Number of loads that were rescheduled
system.cpu0.iew.lsq.thread0.cacheBlocked         6554                       # Number of times an access to memory failed due to the cache being blocked
system.cpu0.iew.iewIdleCycles                       0                       # Number of cycles IEW is idle
system.cpu0.iew.iewSquashCycles                245808                       # Number of cycles IEW is squashing
system.cpu0.iew.iewBlockCycles               16971560                       # Number of cycles IEW is blocking
system.cpu0.iew.iewUnblockCycles               575376                       # Number of cycles IEW is unblocking
system.cpu0.iew.iewDispatchedInsts           25230850                       # Number of instructions dispatched to IQ
system.cpu0.iew.iewDispSquashedInsts            15049                       # Number of squashed instructions skipped by dispatch
system.cpu0.iew.iewDispLoadInsts              4831267                       # Number of dispatched load instructions
system.cpu0.iew.iewDispStoreInsts              244675                       # Number of dispatched store instructions
system.cpu0.iew.iewDispNonSpecInsts              5913                       # Number of dispatched non-speculative instructions
system.cpu0.iew.iewIQFullEvents                 39284                       # Number of times the IQ has become full, causing a stall
system.cpu0.iew.iewLSQFullEvents                47920                       # Number of times the LSQ has become full, causing a stall
system.cpu0.iew.memOrderViolationEvents            13                       # Number of memory order violations
system.cpu0.iew.predictedTakenIncorrect        129211                       # Number of branches that were predicted taken incorrectly
system.cpu0.iew.predictedNotTakenIncorrect       141852                       # Number of branches that were predicted not taken incorrectly
system.cpu0.iew.branchMispredicts              271063                       # Number of branch mispredicts detected at execute
system.cpu0.iew.iewExecutedInsts             17592909                       # Number of executed instructions
system.cpu0.iew.iewExecLoadInsts              2711458                       # Number of load instructions executed
system.cpu0.iew.iewExecSquashedInsts           389109                       # Number of squashed instructions skipped in execute
system.cpu0.iew.exec_swp                            0                       # number of swp insts executed
system.cpu0.iew.exec_nop                            0                       # number of nop insts executed
system.cpu0.iew.exec_refs                     2874285                       # number of memory reference insts executed
system.cpu0.iew.exec_branches                 2122535                       # Number of branches executed
system.cpu0.iew.exec_stores                    162827                       # Number of stores executed
system.cpu0.iew.exec_rate                    0.576161                       # Inst execution rate
system.cpu0.iew.wb_sent                      17287238                       # cumulative count of insts sent to commit
system.cpu0.iew.wb_count                     17226778                       # cumulative count of insts written-back
system.cpu0.iew.wb_producers                 12957082                       # num instructions producing a value
system.cpu0.iew.wb_consumers                 20376329                       # num instructions consuming a value
system.cpu0.iew.wb_rate                      0.564171                       # insts written-back per cycle
system.cpu0.iew.wb_fanout                    0.635889                       # average fanout of values written-back
system.cpu0.commit.commitSquashedInsts       15763296                       # The number of squashed insts skipped by commit
system.cpu0.commit.branchMispredicts           245800                       # The number of times a branch was mispredicted
system.cpu0.commit.committed_per_cycle::samples     28299107                       # Number of insts commited each cycle
system.cpu0.commit.committed_per_cycle::mean     0.334597                       # Number of insts commited each cycle
system.cpu0.commit.committed_per_cycle::stdev     1.023604                       # Number of insts commited each cycle
system.cpu0.commit.committed_per_cycle::underflows            0      0.00%      0.00% # Number of insts commited each cycle
system.cpu0.commit.committed_per_cycle::0     24188701     85.48%     85.48% # Number of insts commited each cycle
system.cpu0.commit.committed_per_cycle::1      1893967      6.69%     92.17% # Number of insts commited each cycle
system.cpu0.commit.committed_per_cycle::2       442851      1.56%     93.73% # Number of insts commited each cycle
system.cpu0.commit.committed_per_cycle::3      1229503      4.34%     98.08% # Number of insts commited each cycle
system.cpu0.commit.committed_per_cycle::4       227213      0.80%     98.88% # Number of insts commited each cycle
system.cpu0.commit.committed_per_cycle::5       129701      0.46%     99.34% # Number of insts commited each cycle
system.cpu0.commit.committed_per_cycle::6        21352      0.08%     99.41% # Number of insts commited each cycle
system.cpu0.commit.committed_per_cycle::7        11389      0.04%     99.45% # Number of insts commited each cycle
system.cpu0.commit.committed_per_cycle::8       154430      0.55%    100.00% # Number of insts commited each cycle
system.cpu0.commit.committed_per_cycle::overflows            0      0.00%    100.00% # Number of insts commited each cycle
system.cpu0.commit.committed_per_cycle::min_value            0                       # Number of insts commited each cycle
system.cpu0.commit.committed_per_cycle::max_value            8                       # Number of insts commited each cycle
system.cpu0.commit.committed_per_cycle::total     28299107                       # Number of insts commited each cycle
system.cpu0.commit.committedInsts             4737417                       # Number of instructions committed
system.cpu0.commit.committedOps               9468810                       # Number of ops (including micro ops) committed
system.cpu0.commit.swp_count                        0                       # Number of s/w prefetches committed
system.cpu0.commit.refs                       1890768                       # Number of memory references committed
system.cpu0.commit.loads                      1801424                       # Number of loads committed
system.cpu0.commit.membars                          0                       # Number of memory barriers committed
system.cpu0.commit.branches                   1715055                       # Number of branches committed
system.cpu0.commit.vec_insts                        0                       # Number of committed Vector instructions.
system.cpu0.commit.fp_insts                     35698                       # Number of committed floating point instructions.
system.cpu0.commit.int_insts                  9432730                       # Number of committed integer instructions.
system.cpu0.commit.function_calls               15746                       # Number of function calls committed.
system.cpu0.commit.op_class_0::No_OpClass        10746      0.11%      0.11% # Class of committed instruction
system.cpu0.commit.op_class_0::IntAlu         7510171     79.31%     79.43% # Class of committed instruction
system.cpu0.commit.op_class_0::IntMult            630      0.01%     79.43% # Class of committed instruction
system.cpu0.commit.op_class_0::IntDiv           25979      0.27%     79.71% # Class of committed instruction
system.cpu0.commit.op_class_0::FloatAdd         30516      0.32%     80.03% # Class of committed instruction
system.cpu0.commit.op_class_0::FloatCmp             0      0.00%     80.03% # Class of committed instruction
system.cpu0.commit.op_class_0::FloatCvt             0      0.00%     80.03% # Class of committed instruction
system.cpu0.commit.op_class_0::FloatMult            0      0.00%     80.03% # Class of committed instruction
system.cpu0.commit.op_class_0::FloatMultAcc            0      0.00%     80.03% # Class of committed instruction
system.cpu0.commit.op_class_0::FloatDiv             0      0.00%     80.03% # Class of committed instruction
system.cpu0.commit.op_class_0::FloatMisc            0      0.00%     80.03% # Class of committed instruction
system.cpu0.commit.op_class_0::FloatSqrt            0      0.00%     80.03% # Class of committed instruction
system.cpu0.commit.op_class_0::SimdAdd              0      0.00%     80.03% # Class of committed instruction
system.cpu0.commit.op_class_0::SimdAddAcc            0      0.00%     80.03% # Class of committed instruction
system.cpu0.commit.op_class_0::SimdAlu              0      0.00%     80.03% # Class of committed instruction
system.cpu0.commit.op_class_0::SimdCmp              0      0.00%     80.03% # Class of committed instruction
system.cpu0.commit.op_class_0::SimdCvt              0      0.00%     80.03% # Class of committed instruction
system.cpu0.commit.op_class_0::SimdMisc             0      0.00%     80.03% # Class of committed instruction
system.cpu0.commit.op_class_0::SimdMult             0      0.00%     80.03% # Class of committed instruction
system.cpu0.commit.op_class_0::SimdMultAcc            0      0.00%     80.03% # Class of committed instruction
system.cpu0.commit.op_class_0::SimdShift            0      0.00%     80.03% # Class of committed instruction
system.cpu0.commit.op_class_0::SimdShiftAcc            0      0.00%     80.03% # Class of committed instruction
system.cpu0.commit.op_class_0::SimdSqrt             0      0.00%     80.03% # Class of committed instruction
system.cpu0.commit.op_class_0::SimdFloatAdd            0      0.00%     80.03% # Class of committed instruction
system.cpu0.commit.op_class_0::SimdFloatAlu            0      0.00%     80.03% # Class of committed instruction
system.cpu0.commit.op_class_0::SimdFloatCmp            0      0.00%     80.03% # Class of committed instruction
system.cpu0.commit.op_class_0::SimdFloatCvt            0      0.00%     80.03% # Class of committed instruction
system.cpu0.commit.op_class_0::SimdFloatDiv            0      0.00%     80.03% # Class of committed instruction
system.cpu0.commit.op_class_0::SimdFloatMisc            0      0.00%     80.03% # Class of committed instruction
system.cpu0.commit.op_class_0::SimdFloatMult            0      0.00%     80.03% # Class of committed instruction
system.cpu0.commit.op_class_0::SimdFloatMultAcc            0      0.00%     80.03% # Class of committed instruction
system.cpu0.commit.op_class_0::SimdFloatSqrt            0      0.00%     80.03% # Class of committed instruction
system.cpu0.commit.op_class_0::MemRead        1796242     18.97%     99.00% # Class of committed instruction
system.cpu0.commit.op_class_0::MemWrite         89344      0.94%     99.95% # Class of committed instruction
system.cpu0.commit.op_class_0::FloatMemRead         5182      0.05%    100.00% # Class of committed instruction
system.cpu0.commit.op_class_0::FloatMemWrite            0      0.00%    100.00% # Class of committed instruction
system.cpu0.commit.op_class_0::IprAccess            0      0.00%    100.00% # Class of committed instruction
system.cpu0.commit.op_class_0::InstPrefetch            0      0.00%    100.00% # Class of committed instruction
system.cpu0.commit.op_class_0::total          9468810                       # Class of committed instruction
system.cpu0.commit.bw_lim_events               154430                       # number cycles where commit BW limit reached
system.cpu0.rob.rob_reads                    53376783                       # The number of ROB reads
system.cpu0.rob.rob_writes                   52689869                       # The number of ROB writes
system.cpu0.timesIdled                            557                       # Number of times that the entire CPU went into an idle state and unscheduled itself
system.cpu0.idleCycles                          16499                       # Total number of cycles that the CPU has spent unscheduled due to idling
system.cpu0.committedInsts                    4737417                       # Number of Instructions Simulated
system.cpu0.committedOps                      9468810                       # Number of Ops (including micro ops) Simulated
system.cpu0.cpi                              6.445430                       # CPI: Cycles Per Instruction
system.cpu0.cpi_total                        6.445430                       # CPI: Total CPI of All Threads
system.cpu0.ipc                              0.155149                       # IPC: Instructions Per Cycle
system.cpu0.ipc_total                        0.155149                       # IPC: Total IPC of All Threads
system.cpu0.int_regfile_reads                17320282                       # number of integer regfile reads
system.cpu0.int_regfile_writes               14962111                       # number of integer regfile writes
system.cpu0.fp_regfile_reads                    90453                       # number of floating regfile reads
system.cpu0.fp_regfile_writes                   45102                       # number of floating regfile writes
system.cpu0.cc_regfile_reads                 11189595                       # number of cc regfile reads
system.cpu0.cc_regfile_writes                 4724372                       # number of cc regfile writes
system.cpu0.misc_regfile_reads                9357890                       # number of misc regfile reads
system.cpu0.dcache.tags.pwrStateResidencyTicks::UNDEFINED  15267344125                       # Cumulative time (in ticks) in various power states
system.cpu0.dcache.tags.replacements           950819                       # number of replacements
system.cpu0.dcache.tags.tagsinuse                 512                       # Cycle average of tags in use
system.cpu0.dcache.tags.total_refs            1161750                       # Total number of references to valid blocks.
system.cpu0.dcache.tags.sampled_refs           950819                       # Sample count of references to valid blocks.
system.cpu0.dcache.tags.avg_refs             1.221841                       # Average number of references to valid blocks.
system.cpu0.dcache.tags.warmup_cycle                0                       # Cycle when the warmup percentage was hit.
system.cpu0.dcache.tags.occ_blocks::cpu0.data          512                       # Average occupied blocks per requestor
system.cpu0.dcache.tags.occ_percent::cpu0.data            1                       # Average percentage of cache occupancy
system.cpu0.dcache.tags.occ_percent::total            1                       # Average percentage of cache occupancy
system.cpu0.dcache.tags.occ_task_id_blocks::1024          512                       # Occupied blocks per task id
system.cpu0.dcache.tags.age_task_id_blocks_1024::0          482                       # Occupied blocks per task id
system.cpu0.dcache.tags.age_task_id_blocks_1024::1           30                       # Occupied blocks per task id
system.cpu0.dcache.tags.occ_task_id_percent::1024            1                       # Percentage of cache occupancy per task id
system.cpu0.dcache.tags.tag_accesses         12027763                       # Number of tag accesses
system.cpu0.dcache.tags.data_accesses        12027763                       # Number of data accesses
system.cpu0.dcache.pwrStateResidencyTicks::UNDEFINED  15267344125                       # Cumulative time (in ticks) in various power states
system.cpu0.dcache.ReadReq_hits::cpu0.data      1076829                       # number of ReadReq hits
system.cpu0.dcache.ReadReq_hits::total        1076829                       # number of ReadReq hits
system.cpu0.dcache.WriteReq_hits::cpu0.data        85354                       # number of WriteReq hits
system.cpu0.dcache.WriteReq_hits::total         85354                       # number of WriteReq hits
system.cpu0.dcache.demand_hits::cpu0.data      1162183                       # number of demand (read+write) hits
system.cpu0.dcache.demand_hits::total         1162183                       # number of demand (read+write) hits
system.cpu0.dcache.overall_hits::cpu0.data      1162183                       # number of overall hits
system.cpu0.dcache.overall_hits::total        1162183                       # number of overall hits
system.cpu0.dcache.ReadReq_misses::cpu0.data      1603063                       # number of ReadReq misses
system.cpu0.dcache.ReadReq_misses::total      1603063                       # number of ReadReq misses
system.cpu0.dcache.WriteReq_misses::cpu0.data         3990                       # number of WriteReq misses
system.cpu0.dcache.WriteReq_misses::total         3990                       # number of WriteReq misses
system.cpu0.dcache.demand_misses::cpu0.data      1607053                       # number of demand (read+write) misses
system.cpu0.dcache.demand_misses::total       1607053                       # number of demand (read+write) misses
system.cpu0.dcache.overall_misses::cpu0.data      1607053                       # number of overall misses
system.cpu0.dcache.overall_misses::total      1607053                       # number of overall misses
system.cpu0.dcache.ReadReq_miss_latency::cpu0.data  30344869500                       # number of ReadReq miss cycles
system.cpu0.dcache.ReadReq_miss_latency::total  30344869500                       # number of ReadReq miss cycles
system.cpu0.dcache.WriteReq_miss_latency::cpu0.data    164076994                       # number of WriteReq miss cycles
system.cpu0.dcache.WriteReq_miss_latency::total    164076994                       # number of WriteReq miss cycles
system.cpu0.dcache.demand_miss_latency::cpu0.data  30508946494                       # number of demand (read+write) miss cycles
system.cpu0.dcache.demand_miss_latency::total  30508946494                       # number of demand (read+write) miss cycles
system.cpu0.dcache.overall_miss_latency::cpu0.data  30508946494                       # number of overall miss cycles
system.cpu0.dcache.overall_miss_latency::total  30508946494                       # number of overall miss cycles
[...]
system.l2.demand_miss_rate::cpu0.data        0.059008                       # miss rate for demand accesses
system.l2.demand_miss_rate::total            0.059009                       # miss rate for demand accesses
system.l2.overall_miss_rate::cpu0.inst       0.117647                       # miss rate for overall accesses
system.l2.overall_miss_rate::cpu0.data       0.059008                       # miss rate for overall accesses
system.l2.overall_miss_rate::total           0.059009                       # miss rate for overall accesses
system.l2.ReadExReq_avg_miss_latency::cpu0.data 141390.606421                       # average ReadExReq miss latency
system.l2.ReadExReq_avg_miss_latency::total 141390.606421                       # average ReadExReq miss latency
system.l2.ReadCleanReq_avg_miss_latency::cpu0.inst        89750                       # average ReadCleanReq miss latency
system.l2.ReadCleanReq_avg_miss_latency::total        89750                       # average ReadCleanReq miss latency
system.l2.ReadSharedReq_avg_miss_latency::cpu0.data 100166.615399                       # average ReadSharedReq miss latency
system.l2.ReadSharedReq_avg_miss_latency::total 100166.615399                       # average ReadSharedReq miss latency
system.l2.demand_avg_miss_latency::cpu0.inst        89750                       # average overall miss latency
system.l2.demand_avg_miss_latency::cpu0.data 100784.541760                       # average overall miss latency
system.l2.demand_avg_miss_latency::total 100784.148428                       # average overall miss latency
system.l2.overall_avg_miss_latency::cpu0.inst        89750                       # average overall miss latency
system.l2.overall_avg_miss_latency::cpu0.data 100784.541760                       # average overall miss latency
system.l2.overall_avg_miss_latency::total 100784.148428                       # average overall miss latency
system.l2.blocked_cycles::no_mshrs                  0                       # number of cycles access was blocked
system.l2.blocked_cycles::no_targets                0                       # number of cycles access was blocked
system.l2.blocked::no_mshrs                         0                       # number of cycles access was blocked
system.l2.blocked::no_targets                       0                       # number of cycles access was blocked
system.l2.avg_blocked_cycles::no_mshrs            nan                       # average number of cycles each access was blocked
system.l2.avg_blocked_cycles::no_targets          nan                       # average number of cycles each access was blocked
system.l2.writebacks::writebacks                 7935                       # number of writebacks
system.l2.writebacks::total                      7935                       # number of writebacks
system.l2.ReadExReq_mshr_misses::cpu0.data          841                       # number of ReadExReq MSHR misses
system.l2.ReadExReq_mshr_misses::total            841                       # number of ReadExReq MSHR misses
system.l2.ReadCleanReq_mshr_misses::cpu0.inst            2                       # number of ReadCleanReq MSHR misses
system.l2.ReadCleanReq_mshr_misses::total            2                       # number of ReadCleanReq MSHR misses
system.l2.ReadSharedReq_mshr_misses::cpu0.data        55265                       # number of ReadSharedReq MSHR misses
system.l2.ReadSharedReq_mshr_misses::total        55265                       # number of ReadSharedReq MSHR misses
system.l2.demand_mshr_misses::cpu0.inst             2                       # number of demand (read+write) MSHR misses
system.l2.demand_mshr_misses::cpu0.data         56106                       # number of demand (read+write) MSHR misses
system.l2.demand_mshr_misses::total             56108                       # number of demand (read+write) MSHR misses
system.l2.overall_mshr_misses::cpu0.inst            2                       # number of overall MSHR misses
system.l2.overall_mshr_misses::cpu0.data        56106                       # number of overall MSHR misses
system.l2.overall_mshr_misses::total            56108                       # number of overall MSHR misses
system.l2.ReadExReq_mshr_miss_latency::cpu0.data    110499500                       # number of ReadExReq MSHR miss cycles
system.l2.ReadExReq_mshr_miss_latency::total    110499500                       # number of ReadExReq MSHR miss cycles
system.l2.ReadCleanReq_mshr_miss_latency::cpu0.inst       159500                       # number of ReadCleanReq MSHR miss cycles
system.l2.ReadCleanReq_mshr_miss_latency::total       159500                       # number of ReadCleanReq MSHR miss cycles
system.l2.ReadSharedReq_mshr_miss_latency::cpu0.data   4983058000                       # number of ReadSharedReq MSHR miss cycles
system.l2.ReadSharedReq_mshr_miss_latency::total   4983058000                       # number of ReadSharedReq MSHR miss cycles
system.l2.demand_mshr_miss_latency::cpu0.inst       159500                       # number of demand (read+write) MSHR miss cycles
system.l2.demand_mshr_miss_latency::cpu0.data   5093557500                       # number of demand (read+write) MSHR miss cycles
system.l2.demand_mshr_miss_latency::total   5093717000                       # number of demand (read+write) MSHR miss cycles
system.l2.overall_mshr_miss_latency::cpu0.inst       159500                       # number of overall MSHR miss cycles
system.l2.overall_mshr_miss_latency::cpu0.data   5093557500                       # number of overall MSHR miss cycles
system.l2.overall_mshr_miss_latency::total   5093717000                       # number of overall MSHR miss cycles
system.l2.ReadExReq_mshr_miss_rate::cpu0.data     0.212106                       # mshr miss rate for ReadExReq accesses
system.l2.ReadExReq_mshr_miss_rate::total     0.212106                       # mshr miss rate for ReadExReq accesses
system.l2.ReadCleanReq_mshr_miss_rate::cpu0.inst     0.117647                       # mshr miss rate for ReadCleanReq accesses
system.l2.ReadCleanReq_mshr_miss_rate::total     0.117647                       # mshr miss rate for ReadCleanReq accesses
system.l2.ReadSharedReq_mshr_miss_rate::cpu0.data     0.058367                       # mshr miss rate for ReadSharedReq accesses
system.l2.ReadSharedReq_mshr_miss_rate::total     0.058367                       # mshr miss rate for ReadSharedReq accesses
system.l2.demand_mshr_miss_rate::cpu0.inst     0.117647                       # mshr miss rate for demand accesses
system.l2.demand_mshr_miss_rate::cpu0.data     0.059008                       # mshr miss rate for demand accesses
system.l2.demand_mshr_miss_rate::total       0.059009                       # mshr miss rate for demand accesses
system.l2.overall_mshr_miss_rate::cpu0.inst     0.117647                       # mshr miss rate for overall accesses
system.l2.overall_mshr_miss_rate::cpu0.data     0.059008                       # mshr miss rate for overall accesses
system.l2.overall_mshr_miss_rate::total      0.059009                       # mshr miss rate for overall accesses
system.l2.ReadExReq_avg_mshr_miss_latency::cpu0.data 131390.606421                       # average ReadExReq mshr miss latency
system.l2.ReadExReq_avg_mshr_miss_latency::total 131390.606421                       # average ReadExReq mshr miss latency
system.l2.ReadCleanReq_avg_mshr_miss_latency::cpu0.inst        79750                       # average ReadCleanReq mshr miss latency
system.l2.ReadCleanReq_avg_mshr_miss_latency::total        79750                       # average ReadCleanReq mshr miss latency
system.l2.ReadSharedReq_avg_mshr_miss_latency::cpu0.data 90166.615399                       # average ReadSharedReq mshr miss latency
system.l2.ReadSharedReq_avg_mshr_miss_latency::total 90166.615399                       # average ReadSharedReq mshr miss latency
system.l2.demand_avg_mshr_miss_latency::cpu0.inst        79750                       # average overall mshr miss latency
system.l2.demand_avg_mshr_miss_latency::cpu0.data 90784.541760                       # average overall mshr miss latency
system.l2.demand_avg_mshr_miss_latency::total 90784.148428                       # average overall mshr miss latency
system.l2.overall_avg_mshr_miss_latency::cpu0.inst        79750                       # average overall mshr miss latency
system.l2.overall_avg_mshr_miss_latency::cpu0.data 90784.541760                       # average overall mshr miss latency
system.l2.overall_avg_mshr_miss_latency::total 90784.148428                       # average overall mshr miss latency
system.membus.snoop_filter.tot_requests        112211                       # Total number of requests made to the snoop filter.
system.membus.snoop_filter.hit_single_requests        56104                       # Number of requests hitting in the snoop filter with a single holder of the requested data.
system.membus.snoop_filter.hit_multi_requests            0                       # Number of requests hitting in the snoop filter with multiple (>1) holders of the requested data.
system.membus.snoop_filter.tot_snoops               0                       # Total number of snoops made to the snoop filter.
system.membus.snoop_filter.hit_single_snoops            0                       # Number of snoops hitting in the snoop filter with a single holder of the requested data.
system.membus.snoop_filter.hit_multi_snoops            0                       # Number of snoops hitting in the snoop filter with multiple (>1) holders of the requested data.
system.membus.pwrStateResidencyTicks::UNDEFINED  15267344125                       # Cumulative time (in ticks) in various power states
system.membus.trans_dist::ReadResp              55267                       # Transaction distribution
system.membus.trans_dist::WritebackDirty         7935                       # Transaction distribution
system.membus.trans_dist::CleanEvict            48168                       # Transaction distribution
system.membus.trans_dist::ReadExReq               841                       # Transaction distribution
system.membus.trans_dist::ReadExResp              841                       # Transaction distribution
system.membus.trans_dist::ReadSharedReq         55267                       # Transaction distribution
system.membus.pkt_count_system.l2.mem_side::system.mem_ctrls.port       168319                       # Packet count per connected master and slave (bytes)
system.membus.pkt_count_system.l2.mem_side::total       168319                       # Packet count per connected master and slave (bytes)
system.membus.pkt_count::total                 168319                       # Packet count per connected master and slave (bytes)
system.membus.pkt_size_system.l2.mem_side::system.mem_ctrls.port      4098752                       # Cumulative packet size per connected master and slave (bytes)
system.membus.pkt_size_system.l2.mem_side::total      4098752                       # Cumulative packet size per connected master and slave (bytes)
system.membus.pkt_size::total                 4098752                       # Cumulative packet size per connected master and slave (bytes)
system.membus.snoops                                0                       # Total snoops (count)
system.membus.snoopTraffic                          0                       # Total snoop traffic (bytes)
system.membus.snoop_fanout::samples             56108                       # Request fanout histogram
system.membus.snoop_fanout::mean                    0                       # Request fanout histogram
system.membus.snoop_fanout::stdev                   0                       # Request fanout histogram
system.membus.snoop_fanout::underflows              0      0.00%      0.00% # Request fanout histogram
system.membus.snoop_fanout::0                   56108    100.00%    100.00% # Request fanout histogram
system.membus.snoop_fanout::1                       0      0.00%    100.00% # Request fanout histogram
system.membus.snoop_fanout::overflows               0      0.00%    100.00% # Request fanout histogram
system.membus.snoop_fanout::min_value               0                       # Request fanout histogram
system.membus.snoop_fanout::max_value               0                       # Request fanout histogram
system.membus.snoop_fanout::total               56108                       # Request fanout histogram
system.membus.reqLayer12.occupancy          159960000                       # Layer occupancy (ticks)
system.membus.reqLayer12.utilization              1.0                       # Layer utilization (%)
system.membus.respLayer1.occupancy          308076750                       # Layer occupancy (ticks)
system.membus.respLayer1.utilization              2.0                       # Layer utilization (%)
system.tol2bus.snoop_filter.tot_requests      1901673                       # Total number of requests made to the snoop filter.
system.tol2bus.snoop_filter.hit_single_requests       950838                       # Number of requests hitting in the snoop filter with a single holder of the requested data.
system.tol2bus.snoop_filter.hit_multi_requests         2054                       # Number of requests hitting in the snoop filter with multiple (>1) holders of the requested data.
system.tol2bus.snoop_filter.tot_snoops             11                       # Total number of snoops made to the snoop filter.
system.tol2bus.snoop_filter.hit_single_snoops           11                       # Number of snoops hitting in the snoop filter with a single holder of the requested data.
system.tol2bus.snoop_filter.hit_multi_snoops            0                       # Number of snoops hitting in the snoop filter with multiple (>1) holders of the requested data.
system.tol2bus.pwrStateResidencyTicks::UNDEFINED  15267344125                       # Cumulative time (in ticks) in various power states
system.tol2bus.trans_dist::ReadResp            946871                       # Transaction distribution
system.tol2bus.trans_dist::WritebackDirty       453355                       # Transaction distribution
system.tol2bus.trans_dist::WritebackClean           17                       # Transaction distribution
system.tol2bus.trans_dist::CleanEvict          553578                       # Transaction distribution
system.tol2bus.trans_dist::ReadExReq             3965                       # Transaction distribution
system.tol2bus.trans_dist::ReadExResp            3965                       # Transaction distribution
system.tol2bus.trans_dist::ReadCleanReq            17                       # Transaction distribution
system.tol2bus.trans_dist::ReadSharedReq       946855                       # Transaction distribution
system.tol2bus.pkt_count_system.cpu0.icache.mem_side::system.l2.cpu_side           51                       # Packet count per connected master and slave (bytes)
system.tol2bus.pkt_count_system.cpu0.dcache.mem_side::system.l2.cpu_side      2852458                       # Packet count per connected master and slave (bytes)
system.tol2bus.pkt_count::total               2852509                       # Packet count per connected master and slave (bytes)
system.tol2bus.pkt_size_system.cpu0.icache.mem_side::system.l2.cpu_side         2176                       # Cumulative packet size per connected master and slave (bytes)
system.tol2bus.pkt_size_system.cpu0.dcache.mem_side::system.l2.cpu_side     89359296                       # Cumulative packet size per connected master and slave (bytes)
system.tol2bus.pkt_size::total               89361472                       # Cumulative packet size per connected master and slave (bytes)
system.tol2bus.snoops                           56114                       # Total snoops (count)
system.tol2bus.snoopTraffic                    507840                       # Total snoop traffic (bytes)
system.tol2bus.snoop_fanout::samples          1006951                       # Request fanout histogram
system.tol2bus.snoop_fanout::mean            0.002053                       # Request fanout histogram
system.tol2bus.snoop_fanout::stdev           0.045261                       # Request fanout histogram
system.tol2bus.snoop_fanout::underflows             0      0.00%      0.00% # Request fanout histogram
system.tol2bus.snoop_fanout::0                1004884     99.79%     99.79% # Request fanout histogram
system.tol2bus.snoop_fanout::1                   2067      0.21%    100.00% # Request fanout histogram
system.tol2bus.snoop_fanout::2                      0      0.00%    100.00% # Request fanout histogram
system.tol2bus.snoop_fanout::3                      0      0.00%    100.00% # Request fanout histogram
system.tol2bus.snoop_fanout::4                      0      0.00%    100.00% # Request fanout histogram
system.tol2bus.snoop_fanout::5                      0      0.00%    100.00% # Request fanout histogram
system.tol2bus.snoop_fanout::6                      0      0.00%    100.00% # Request fanout histogram
system.tol2bus.snoop_fanout::7                      0      0.00%    100.00% # Request fanout histogram
system.tol2bus.snoop_fanout::8                      0      0.00%    100.00% # Request fanout histogram
system.tol2bus.snoop_fanout::9                      0      0.00%    100.00% # Request fanout histogram
system.tol2bus.snoop_fanout::10                     0      0.00%    100.00% # Request fanout histogram
system.tol2bus.snoop_fanout::11                     0      0.00%    100.00% # Request fanout histogram
system.tol2bus.snoop_fanout::12                     0      0.00%    100.00% # Request fanout histogram
system.tol2bus.snoop_fanout::13                     0      0.00%    100.00% # Request fanout histogram
system.tol2bus.snoop_fanout::14                     0      0.00%    100.00% # Request fanout histogram
system.tol2bus.snoop_fanout::15                     0      0.00%    100.00% # Request fanout histogram
system.tol2bus.snoop_fanout::16                     0      0.00%    100.00% # Request fanout histogram
system.tol2bus.snoop_fanout::17                     0      0.00%    100.00% # Request fanout histogram
system.tol2bus.snoop_fanout::18                     0      0.00%    100.00% # Request fanout histogram
system.tol2bus.snoop_fanout::19                     0      0.00%    100.00% # Request fanout histogram
system.tol2bus.snoop_fanout::20                     0      0.00%    100.00% # Request fanout histogram
system.tol2bus.snoop_fanout::21                     0      0.00%    100.00% # Request fanout histogram
system.tol2bus.snoop_fanout::22                     0      0.00%    100.00% # Request fanout histogram
system.tol2bus.snoop_fanout::23                     0      0.00%    100.00% # Request fanout histogram
system.tol2bus.snoop_fanout::24                     0      0.00%    100.00% # Request fanout histogram
system.tol2bus.snoop_fanout::overflows              0      0.00%    100.00% # Request fanout histogram
system.tol2bus.snoop_fanout::min_value              0                       # Request fanout histogram
system.tol2bus.snoop_fanout::max_value              1                       # Request fanout histogram
system.tol2bus.snoop_fanout::total            1006951                       # Request fanout histogram
system.tol2bus.reqLayer0.occupancy         1396273500                       # Layer occupancy (ticks)
system.tol2bus.reqLayer0.utilization              9.1                       # Layer utilization (%)
system.tol2bus.respLayer0.occupancy             25500                       # Layer occupancy (ticks)
system.tol2bus.respLayer0.utilization             0.0                       # Layer utilization (%)
system.tol2bus.respLayer1.occupancy        1426228500                       # Layer occupancy (ticks)
system.tol2bus.respLayer1.utilization             9.3                       # Layer utilization (%)

---------- End Simulation Statistics   ----------
