
---------- Begin Simulation Statistics ----------
sim_seconds                                  0.015267                       # Number of seconds simulated
sim_ticks                                 15267344125                       # Number of ticks simulated
final_tick                               3328281019250                       # Number of ticks from beginning of simulation (restored from checkpoints and never reset)
sim_freq                                 1000000000000                       # Frequency of simulated ticks
host_inst_rate                               48178950                       # Simulator instruction rate (inst/s)
host_op_rate                                 89515708                       # Simulator op (including micro ops) rate (op/s)
host_tick_rate                              127280927                       # Simulator tick rate (ticks/s)
host_mem_usage                                3428828                       # Number of bytes of host memory used
host_seconds                                   119.95                       # Real time elapsed on the host
sim_insts                                  5779063000                       # Number of instructions simulated
sim_ops                                   10737406347                       # Number of ops (including micro ops) simulated
system.voltage_domain.voltage                       1                       # Voltage in Volts
system.clk_domain.clock                          1000                       # Clock period in ticks
system.mem_ctrls.pwrStateResidencyTicks::UNDEFINED  15267344125                       # Cumulative time (in ticks) in various power states
system.mem_ctrls.bytes_read::cpu0.inst            256                       # Number of bytes read from this memory
system.mem_ctrls.bytes_read::cpu0.data         176064                       # Number of bytes read from this memory
system.mem_ctrls.bytes_read::total             176320                       # Number of bytes read from this memory
system.mem_ctrls.bytes_inst_read::cpu0.inst          256                       # Number of instructions bytes read from this memory
system.mem_ctrls.bytes_inst_read::total           256                       # Number of instructions bytes read from this memory
system.mem_ctrls.bytes_written::writebacks         4288                       # Number of bytes written to this memory
system.mem_ctrls.bytes_written::total            4288                       # Number of bytes written to this memory
system.mem_ctrls.num_reads::cpu0.inst               4                       # Number of read requests responded to by this memory
system.mem_ctrls.num_reads::cpu0.data            2751                       # Number of read requests responded to by this memory
system.mem_ctrls.num_reads::total                2755                       # Number of read requests responded to by this memory
system.mem_ctrls.num_writes::writebacks            67                       # Number of write requests responded to by this memory
system.mem_ctrls.num_writes::total                 67                       # Number of write requests responded to by this memory
system.mem_ctrls.bw_read::cpu0.inst             16768                       # Total read bandwidth from this memory (bytes/s)
system.mem_ctrls.bw_read::cpu0.data          11532065                       # Total read bandwidth from this memory (bytes/s)
system.mem_ctrls.bw_read::total              11548832                       # Total read bandwidth from this memory (bytes/s)
system.mem_ctrls.bw_inst_read::cpu0.inst        16768                       # Instruction read bandwidth from this memory (bytes/s)
system.mem_ctrls.bw_inst_read::total            16768                       # Instruction read bandwidth from this memory (bytes/s)
system.mem_ctrls.bw_write::writebacks          280861                       # Write bandwidth from this memory (bytes/s)
system.mem_ctrls.bw_write::total               280861                       # Write bandwidth from this memory (bytes/s)
system.mem_ctrls.bw_total::writebacks          280861                       # Total bandwidth to/from this memory (bytes/s)
system.mem_ctrls.bw_total::cpu0.inst            16768                       # Total bandwidth to/from this memory (bytes/s)
system.mem_ctrls.bw_total::cpu0.data         11532065                       # Total bandwidth to/from this memory (bytes/s)
system.mem_ctrls.bw_total::total             11829693                       # Total bandwidth to/from this memory (bytes/s)
system.mem_ctrls.readReqs                        2755                       # Number of read requests accepted
system.mem_ctrls.writeReqs                         67                       # Number of write requests accepted
system.mem_ctrls.readBursts                      2755                       # Number of DRAM read bursts, including those serviced by the write queue
system.mem_ctrls.writeBursts                       67                       # Number of DRAM write bursts, including those merged in the write queue
system.mem_ctrls.bytesReadDRAM                 174016                       # Total number of bytes read from DRAM
system.mem_ctrls.bytesReadWrQ                    2304                       # Total number of bytes read from write queue
system.mem_ctrls.bytesWritten                    4224                       # Total number of bytes written to DRAM
system.mem_ctrls.bytesReadSys                  176320                       # Total read bytes from the system interface side
system.mem_ctrls.bytesWrittenSys                 4288                       # Total written bytes from the system interface side
system.mem_ctrls.servicedByWrQ                     36                       # Number of DRAM read bursts serviced by the write queue
system.mem_ctrls.mergedWrBursts                     0                       # Number of DRAM write bursts merged with an existing one
system.mem_ctrls.neitherReadNorWriteReqs            0                       # Number of requests that are neither read nor write
system.mem_ctrls.perBankRdBursts::0               188                       # Per bank write bursts
system.mem_ctrls.perBankRdBursts::1               149                       # Per bank write bursts
system.mem_ctrls.perBankRdBursts::2                 9                       # Per bank write bursts
system.mem_ctrls.perBankRdBursts::3                 4                       # Per bank write bursts
system.mem_ctrls.perBankRdBursts::4               115                       # Per bank write bursts
system.mem_ctrls.perBankRdBursts::5                 0                       # Per bank write bursts
system.mem_ctrls.perBankRdBursts::6                71                       # Per bank write bursts
system.mem_ctrls.perBankRdBursts::7               175                       # Per bank write bursts
system.mem_ctrls.perBankRdBursts::8               195                       # Per bank write bursts
system.mem_ctrls.perBankRdBursts::9               324                       # Per bank write bursts
system.mem_ctrls.perBankRdBursts::10              328                       # Per bank write bursts
system.mem_ctrls.perBankRdBursts::11              237                       # Per bank write bursts
system.mem_ctrls.perBankRdBursts::12              239                       # Per bank write bursts
system.mem_ctrls.perBankRdBursts::13              239                       # Per bank write bursts
system.mem_ctrls.perBankRdBursts::14              239                       # Per bank write bursts
system.mem_ctrls.perBankRdBursts::15              207                       # Per bank write bursts
system.mem_ctrls.perBankWrBursts::0                17                       # Per bank write bursts
system.mem_ctrls.perBankWrBursts::1                 8                       # Per bank write bursts
system.mem_ctrls.perBankWrBursts::2                 0                       # Per bank write bursts
system.mem_ctrls.perBankWrBursts::3                 2                       # Per bank write bursts
system.mem_ctrls.perBankWrBursts::4                 0                       # Per bank write bursts
system.mem_ctrls.perBankWrBursts::5                 0                       # Per bank write bursts
system.mem_ctrls.perBankWrBursts::6                 4                       # Per bank write bursts
system.mem_ctrls.perBankWrBursts::7                14                       # Per bank write bursts
system.mem_ctrls.perBankWrBursts::8                 7                       # Per bank write bursts
system.mem_ctrls.perBankWrBursts::9                 2                       # Per bank write bursts
system.mem_ctrls.perBankWrBursts::10                0                       # Per bank write bursts
system.mem_ctrls.perBankWrBursts::11                0                       # Per bank write bursts
system.mem_ctrls.perBankWrBursts::12                1                       # Per bank write bursts
system.mem_ctrls.perBankWrBursts::13                4                       # Per bank write bursts
system.mem_ctrls.perBankWrBursts::14                0                       # Per bank write bursts
system.mem_ctrls.perBankWrBursts::15                7                       # Per bank write bursts
system.mem_ctrls.numRdRetry                         0                       # Number of times read queue was full causing retry
system.mem_ctrls.numWrRetry                         0                       # Number of times write queue was full causing retry
system.mem_ctrls.totGap                   15266694500                       # Total gap between requests
system.mem_ctrls.readPktSize::0                     0                       # Read request sizes (log2)
system.mem_ctrls.readPktSize::1                     0                       # Read request sizes (log2)
system.mem_ctrls.readPktSize::2                     0                       # Read request sizes (log2)
system.mem_ctrls.readPktSize::3                     0                       # Read request sizes (log2)
system.mem_ctrls.readPktSize::4                     0                       # Read request sizes (log2)
system.mem_ctrls.readPktSize::5                     0                       # Read request sizes (log2)
system.mem_ctrls.readPktSize::6                  2755                       # Read request sizes (log2)
system.mem_ctrls.writePktSize::0                    0                       # Write request sizes (log2)
system.mem_ctrls.writePktSize::1                    0                       # Write request sizes (log2)
system.mem_ctrls.writePktSize::2                    0                       # Write request sizes (log2)
system.mem_ctrls.writePktSize::3                    0                       # Write request sizes (log2)
system.mem_ctrls.writePktSize::4                    0                       # Write request sizes (log2)
system.mem_ctrls.writePktSize::5                    0                       # Write request sizes (log2)
system.mem_ctrls.writePktSize::6                   67                       # Write request sizes (log2)
system.mem_ctrls.rdQLenPdf::0                    2503                       # What read queue length does an incoming req see
system.mem_ctrls.rdQLenPdf::1                     198                       # What read queue length does an incoming req see
system.mem_ctrls.rdQLenPdf::2                      17                       # What read queue length does an incoming req see
system.mem_ctrls.rdQLenPdf::3                       1                       # What read queue length does an incoming req see
system.mem_ctrls.rdQLenPdf::4                       0                       # What read queue length does an incoming req see
system.mem_ctrls.rdQLenPdf::5                       0                       # What read queue length does an incoming req see
system.mem_ctrls.rdQLenPdf::6                       0                       # What read queue length does an incoming req see
system.mem_ctrls.rdQLenPdf::7                       0                       # What read queue length does an incoming req see
system.mem_ctrls.rdQLenPdf::8                       0                       # What read queue length does an incoming req see
system.mem_ctrls.rdQLenPdf::9                       0                       # What read queue length does an incoming req see
system.mem_ctrls.rdQLenPdf::10                      0                       # What read queue length does an incoming req see
system.mem_ctrls.rdQLenPdf::11                      0                       # What read queue length does an incoming req see
system.mem_ctrls.rdQLenPdf::12                      0                       # What read queue length does an incoming req see
system.mem_ctrls.rdQLenPdf::13                      0                       # What read queue length does an incoming req see
system.mem_ctrls.rdQLenPdf::14                      0                       # What read queue length does an incoming req see
system.mem_ctrls.rdQLenPdf::15                      0                       # What read queue length does an incoming req see
system.mem_ctrls.rdQLenPdf::16                      0                       # What read queue length does an incoming req see
system.mem_ctrls.rdQLenPdf::17                      0                       # What read queue length does an incoming req see
system.mem_ctrls.rdQLenPdf::18                      0                       # What read queue length does an incoming req see
system.mem_ctrls.rdQLenPdf::19                      0                       # What read queue length does an incoming req see
system.mem_ctrls.rdQLenPdf::20                      0                       # What read queue length does an incoming req see
system.mem_ctrls.rdQLenPdf::21                      0                       # What read queue length does an incoming req see
system.mem_ctrls.rdQLenPdf::22                      0                       # What read queue length does an incoming req see
system.mem_ctrls.rdQLenPdf::23                      0                       # What read queue length does an incoming req see
system.mem_ctrls.rdQLenPdf::24                      0                       # What read queue length does an incoming req see
system.mem_ctrls.rdQLenPdf::25                      0                       # What read queue length does an incoming req see
system.mem_ctrls.rdQLenPdf::26                      0                       # What read queue length does an incoming req see
system.mem_ctrls.rdQLenPdf::27                      0                       # What read queue length does an incoming req see
system.mem_ctrls.rdQLenPdf::28                      0                       # What read queue length does an incoming req see
system.mem_ctrls.rdQLenPdf::29                      0                       # What read queue length does an incoming req see
system.mem_ctrls.rdQLenPdf::30                      0                       # What read queue length does an incoming req see
system.mem_ctrls.rdQLenPdf::31                      0                       # What read queue length does an incoming req see
system.mem_ctrls.wrQLenPdf::0                       0                       # What write queue length does an incoming req see
system.mem_ctrls.wrQLenPdf::1                       0                       # What write queue length does an incoming req see
system.mem_ctrls.wrQLenPdf::2                       0                       # What write queue length does an incoming req see
system.mem_ctrls.wrQLenPdf::3                       0                       # What write queue length does an incoming req see
system.mem_ctrls.wrQLenPdf::4                       0                       # What write queue length does an incoming req see
system.mem_ctrls.wrQLenPdf::5                       0                       # What write queue length does an incoming req see
system.mem_ctrls.wrQLenPdf::6                       0                       # What write queue length does an incoming req see
system.mem_ctrls.wrQLenPdf::7                       0                       # What write queue length does an incoming req see
system.mem_ctrls.wrQLenPdf::8                       0                       # What write queue length does an incoming req see
system.mem_ctrls.wrQLenPdf::9                       0                       # What write queue length does an incoming req see
system.mem_ctrls.wrQLenPdf::10                      0                       # What write queue length does an incoming req see
system.mem_ctrls.wrQLenPdf::11                      0                       # What write queue length does an incoming req see
system.mem_ctrls.wrQLenPdf::12                      0                       # What write queue length does an incoming req see
system.mem_ctrls.wrQLenPdf::13                      0                       # What write queue length does an incoming req see
system.mem_ctrls.wrQLenPdf::14                      0                       # What write queue length does an incoming req see
system.mem_ctrls.wrQLenPdf::15                      1                       # What write queue length does an incoming req see
system.mem_ctrls.wrQLenPdf::16                      1                       # What write queue length does an incoming req see
system.mem_ctrls.wrQLenPdf::17                      4                       # What write queue length does an incoming req see
system.mem_ctrls.wrQLenPdf::18                      4                       # What write queue length does an incoming req see
system.mem_ctrls.wrQLenPdf::19                      4                       # What write queue length does an incoming req see
system.mem_ctrls.wrQLenPdf::20                      4                       # What write queue length does an incoming req see
system.mem_ctrls.wrQLenPdf::21                      4                       # What write queue length does an incoming req see
system.mem_ctrls.wrQLenPdf::22                      4                       # What write queue length does an incoming req see
system.mem_ctrls.wrQLenPdf::23                      5                       # What write queue length does an incoming req see
system.mem_ctrls.wrQLenPdf::24                      4                       # What write queue length does an incoming req see
system.mem_ctrls.wrQLenPdf::25                      4                       # What write queue length does an incoming req see
system.mem_ctrls.wrQLenPdf::26                      4                       # What write queue length does an incoming req see
system.mem_ctrls.wrQLenPdf::27                      4                       # What write queue length does an incoming req see
system.mem_ctrls.wrQLenPdf::28                      4                       # What write queue length does an incoming req see
system.mem_ctrls.wrQLenPdf::29                      4                       # What write queue length does an incoming req see
system.mem_ctrls.wrQLenPdf::30                      4                       # What write queue length does an incoming req see
system.mem_ctrls.wrQLenPdf::31                      4                       # What write queue length does an incoming req see
system.mem_ctrls.wrQLenPdf::32                      4                       # What write queue length does an incoming req see
system.mem_ctrls.wrQLenPdf::33                      0                       # What write queue length does an incoming req see
system.mem_ctrls.wrQLenPdf::34                      0                       # What write queue length does an incoming req see
system.mem_ctrls.wrQLenPdf::35                      0                       # What write queue length does an incoming req see
system.mem_ctrls.wrQLenPdf::36                      0                       # What write queue length does an incoming req see
system.mem_ctrls.wrQLenPdf::37                      0                       # What write queue length does an incoming req see
system.mem_ctrls.wrQLenPdf::38                      0                       # What write queue length does an incoming req see
system.mem_ctrls.wrQLenPdf::39                      0                       # What write queue length does an incoming req see
system.mem_ctrls.wrQLenPdf::40                      0                       # What write queue length does an incoming req see
system.mem_ctrls.wrQLenPdf::41                      0                       # What write queue length does an incoming req see
system.mem_ctrls.wrQLenPdf::42                      0                       # What write queue length does an incoming req see
system.mem_ctrls.wrQLenPdf::43                      0                       # What write queue length does an incoming req see
system.mem_ctrls.wrQLenPdf::44                      0                       # What write queue length does an incoming req see
system.mem_ctrls.wrQLenPdf::45                      0                       # What write queue length does an incoming req see
system.mem_ctrls.wrQLenPdf::46                      0                       # What write queue length does an incoming req see
system.mem_ctrls.wrQLenPdf::47                      0                       # What write queue length does an incoming req see
system.mem_ctrls.wrQLenPdf::48                      0                       # What write queue length does an incoming req see
system.mem_ctrls.wrQLenPdf::49                      0                       # What write queue length does an incoming req see
system.mem_ctrls.wrQLenPdf::50                      0                       # What write queue length does an incoming req see
system.mem_ctrls.wrQLenPdf::51                      0                       # What write queue length does an incoming req see
system.mem_ctrls.wrQLenPdf::52                      0                       # What write queue length does an incoming req see
system.mem_ctrls.wrQLenPdf::53                      0                       # What write queue length does an incoming req see
system.mem_ctrls.wrQLenPdf::54                      0                       # What write queue length does an incoming req see
system.mem_ctrls.wrQLenPdf::55                      0                       # What write queue length does an incoming req see
system.mem_ctrls.wrQLenPdf::56                      0                       # What write queue length does an incoming req see
system.mem_ctrls.wrQLenPdf::57                      0                       # What write queue length does an incoming req see
system.mem_ctrls.wrQLenPdf::58                      0                       # What write queue length does an incoming req see
system.mem_ctrls.wrQLenPdf::59                      0                       # What write queue length does an incoming req see
system.mem_ctrls.wrQLenPdf::60                      0                       # What write queue length does an incoming req see
system.mem_ctrls.wrQLenPdf::61                      0                       # What write queue length does an incoming req see
system.mem_ctrls.wrQLenPdf::62                      0                       # What write queue length does an incoming req see
system.mem_ctrls.wrQLenPdf::63                      0                       # What write queue length does an incoming req see
system.mem_ctrls.bytesPerActivate::samples         2376                       # Bytes accessed per row activation
system.mem_ctrls.bytesPerActivate::mean     75.043771                       # Bytes accessed per row activation
system.mem_ctrls.bytesPerActivate::gmean    71.620485                       # Bytes accessed per row activation
system.mem_ctrls.bytesPerActivate::stdev    29.401922                       # Bytes accessed per row activation
system.mem_ctrls.bytesPerActivate::64-127         2016     84.85%     84.85% # Bytes accessed per row activation
system.mem_ctrls.bytesPerActivate::128-191          324     13.64%     98.48% # Bytes accessed per row activation
system.mem_ctrls.bytesPerActivate::192-255           31      1.30%     99.79% # Bytes accessed per row activation
system.mem_ctrls.bytesPerActivate::256-319            1      0.04%     99.83% # Bytes accessed per row activation
system.mem_ctrls.bytesPerActivate::320-383            1      0.04%     99.87% # Bytes accessed per row activation
system.mem_ctrls.bytesPerActivate::384-447            2      0.08%     99.96% # Bytes accessed per row activation
system.mem_ctrls.bytesPerActivate::512-575            1      0.04%    100.00% # Bytes accessed per row activation
system.mem_ctrls.bytesPerActivate::total         2376                       # Bytes accessed per row activation
system.mem_ctrls.rdPerTurnAround::samples            4                       # Reads before turning the bus around for writes
system.mem_ctrls.rdPerTurnAround::mean            650                       # Reads before turning the bus around for writes
system.mem_ctrls.rdPerTurnAround::gmean    625.964054                       # Reads before turning the bus around for writes
system.mem_ctrls.rdPerTurnAround::stdev    204.321642                       # Reads before turning the bus around for writes
system.mem_ctrls.rdPerTurnAround::416-447            1     25.00%     25.00% # Reads before turning the bus around for writes
system.mem_ctrls.rdPerTurnAround::544-575            1     25.00%     50.00% # Reads before turning the bus around for writes
system.mem_ctrls.rdPerTurnAround::704-735            1     25.00%     75.00% # Reads before turning the bus around for writes
system.mem_ctrls.rdPerTurnAround::896-927            1     25.00%    100.00% # Reads before turning the bus around for writes
system.mem_ctrls.rdPerTurnAround::total             4                       # Reads before turning the bus around for writes
system.mem_ctrls.wrPerTurnAround::samples            4                       # Writes before turning the bus around for reads
system.mem_ctrls.wrPerTurnAround::mean      16.500000                       # Writes before turning the bus around for reads
system.mem_ctrls.wrPerTurnAround::gmean     16.478137                       # Writes before turning the bus around for reads
system.mem_ctrls.wrPerTurnAround::stdev             1                       # Writes before turning the bus around for reads
system.mem_ctrls.wrPerTurnAround::16                3     75.00%     75.00% # Writes before turning the bus around for reads
system.mem_ctrls.wrPerTurnAround::18                1     25.00%    100.00% # Writes before turning the bus around for reads
system.mem_ctrls.wrPerTurnAround::total             4                       # Writes before turning the bus around for reads
system.mem_ctrls.totQLat                    619731250                       # Total ticks spent queuing
system.mem_ctrls.totMemAccLat               670712500                       # Total ticks spent from burst creation until serviced by the DRAM
system.mem_ctrls.totBusLat                   13595000                       # Total ticks spent in databus transfers
system.mem_ctrls.avgQLat                    227926.17                       # Average queueing delay per DRAM burst
system.mem_ctrls.avgBusLat                    5000.00                       # Average bus latency per DRAM burst
system.mem_ctrls.avgMemAccLat               246676.17                       # Average memory access latency per DRAM burst
system.mem_ctrls.avgRdBW                        11.40                       # Average DRAM read bandwidth in MiByte/s
system.mem_ctrls.avgWrBW                         0.28                       # Average achieved write bandwidth in MiByte/s
system.mem_ctrls.avgRdBWSys                     11.55                       # Average system read bandwidth in MiByte/s
system.mem_ctrls.avgWrBWSys                      0.28                       # Average system write bandwidth in MiByte/s
system.mem_ctrls.peakBW                      12800.00                       # Theoretical peak bandwidth in MiByte/s
system.mem_ctrls.busUtil                         0.09                       # Data bus utilization in percentage
system.mem_ctrls.busUtilRead                     0.09                       # Data bus utilization in percentage for reads
system.mem_ctrls.busUtilWrite                    0.00                       # Data bus utilization in percentage for writes
system.mem_ctrls.avgRdQLen                       1.11                       # Average read queue length when enqueuing
system.mem_ctrls.avgWrQLen                      24.78                       # Average write queue length when enqueuing
system.mem_ctrls.readRowHits                      375                       # Number of row buffer hits during reads
system.mem_ctrls.writeRowHits                      35                       # Number of row buffer hits during writes
system.mem_ctrls.readRowHitRate                 13.79                       # Row buffer hit rate for reads
system.mem_ctrls.writeRowHitRate                52.24                       # Row buffer hit rate for writes
system.mem_ctrls.avgGap                    5409884.66                       # Average gap between requests
system.mem_ctrls.pageHitRate                    14.72                       # Row buffer hit rate, read and write combined
system.mem_ctrls_0.actEnergy                  4676700                       # Energy for activate commands per rank (pJ)
system.mem_ctrls_0.preEnergy                  2485725                       # Energy for precharge commands per rank (pJ)
system.mem_ctrls_0.readEnergy                 5076540                       # Energy for read commands per rank (pJ)
system.mem_ctrls_0.writeEnergy                 234900                       # Energy for write commands per rank (pJ)
system.mem_ctrls_0.refreshEnergy         843900720.000000                       # Energy for refresh commands per rank (pJ)
system.mem_ctrls_0.actBackEnergy            173432760                       # Energy for active background per rank (pJ)
system.mem_ctrls_0.preBackEnergy             52546080                       # Energy for precharge background per rank (pJ)
system.mem_ctrls_0.actPowerDownEnergy      1565271870                       # Energy for active power-down per rank (pJ)
system.mem_ctrls_0.prePowerDownEnergy      1442937600                       # Energy for precharge power-down per rank (pJ)
system.mem_ctrls_0.selfRefreshEnergy       2041348140                       # Energy for self refresh per rank (pJ)
system.mem_ctrls_0.totalEnergy             6133609455                       # Total energy per rank (pJ)
system.mem_ctrls_0.averagePower            401.746984                       # Core power per rank (mW)
system.mem_ctrls_0.totalIdleTime          14745431875                       # Total Idle time Per DRAM Rank
system.mem_ctrls_0.memoryStateTime::IDLE    111672000                       # Time in different power states
system.mem_ctrls_0.memoryStateTime::REF     359584000                       # Time in different power states
system.mem_ctrls_0.memoryStateTime::SREF   7556127000                       # Time in different power states
system.mem_ctrls_0.memoryStateTime::PRE_PDN   3757658625                       # Time in different power states
system.mem_ctrls_0.memoryStateTime::ACT      49681000                       # Time in different power states
system.mem_ctrls_0.memoryStateTime::ACT_PDN   3432621500                       # Time in different power states
system.mem_ctrls_1.actEnergy                 12280800                       # Energy for activate commands per rank (pJ)
system.mem_ctrls_1.preEnergy                  6531195                       # Energy for precharge commands per rank (pJ)
system.mem_ctrls_1.readEnergy                14337120                       # Energy for read commands per rank (pJ)
system.mem_ctrls_1.writeEnergy                 109620                       # Energy for write commands per rank (pJ)
system.mem_ctrls_1.refreshEnergy         1406910960.000000                       # Energy for refresh commands per rank (pJ)
system.mem_ctrls_1.actBackEnergy            289996620                       # Energy for active background per rank (pJ)
system.mem_ctrls_1.preBackEnergy             77951040                       # Energy for precharge background per rank (pJ)
system.mem_ctrls_1.actPowerDownEnergy      2697003450                       # Energy for active power-down per rank (pJ)
system.mem_ctrls_1.prePowerDownEnergy      2594166720                       # Energy for precharge power-down per rank (pJ)
system.mem_ctrls_1.selfRefreshEnergy        749461920                       # Energy for self refresh per rank (pJ)
system.mem_ctrls_1.totalEnergy             7852972965                       # Total energy per rank (pJ)
system.mem_ctrls_1.averagePower            514.364051                       # Core power per rank (mW)
system.mem_ctrls_1.totalIdleTime          14416878375                       # Total Idle time Per DRAM Rank
system.mem_ctrls_1.memoryStateTime::IDLE    162630000                       # Time in different power states
system.mem_ctrls_1.memoryStateTime::REF     599214000                       # Time in different power states
system.mem_ctrls_1.memoryStateTime::SREF   1748841750                       # Time in different power states
system.mem_ctrls_1.memoryStateTime::PRE_PDN   6755620750                       # Time in different power states
system.mem_ctrls_1.memoryStateTime::ACT      86561000                       # Time in different power states
system.mem_ctrls_1.memoryStateTime::ACT_PDN   5914476625                       # Time in different power states
system.pwrStateResidencyTicks::UNDEFINED  15267344125                       # Cumulative time (in ticks) in various power states
system.cpu0.branchPred.lookups                7214426                       # Number of BP lookups
system.cpu0.branchPred.condPredicted          7214426                       # Number of conditional branches predicted
system.cpu0.branchPred.condIncorrect           324864                       # Number of conditional branches incorrect
system.cpu0.branchPred.BTBLookups             5875254                       # Number of BTB lookups
system.cpu0.branchPred.BTBHits                      0                       # Number of BTB hits
system.cpu0.branchPred.BTBCorrect                   0                       # Number of correct BTB predictions (this stat may not work properly.
system.cpu0.branchPred.BTBHitPct             0.000000                       # BTB Hit Percentage
system.cpu0.branchPred.usedRAS                 211783                       # Number of times the RAS was used to get a target.
system.cpu0.branchPred.RASInCorrect             30200                       # Number of incorrect RAS predictions.
system.cpu0.branchPred.indirectLookups        5875254                       # Number of indirect predictor lookups.
system.cpu0.branchPred.indirectHits           3022770                       # Number of indirect target hits.
system.cpu0.branchPred.indirectMisses         2852484                       # Number of indirect misses.
system.cpu0.branchPredindirectMispredicted       113712                       # Number of mispredicted indirect branches.
system.cpu_voltage_domain.voltage                   1                       # Voltage in Volts
system.cpu_clk_domain.clock                       500                       # Clock period in ticks
system.cpu0.dtb.walker.pwrStateResidencyTicks::UNDEFINED  15267344125                       # Cumulative time (in ticks) in various power states
system.cpu0.dtb.rdAccesses                    3504349                       # TLB accesses on read requests
system.cpu0.dtb.wrAccesses                     244362                       # TLB accesses on write requests
system.cpu0.dtb.rdMisses                       718238                       # TLB misses on read requests
system.cpu0.dtb.wrMisses                         4378                       # TLB misses on write requests
system.cpu0.apic_clk_domain.clock                8000                       # Clock period in ticks
system.cpu0.interrupts.pwrStateResidencyTicks::UNDEFINED  15267344125                       # Cumulative time (in ticks) in various power states
system.cpu0.itb.walker.pwrStateResidencyTicks::UNDEFINED  15267344125                       # Cumulative time (in ticks) in various power states
system.cpu0.itb.rdAccesses                          0                       # TLB accesses on read requests
system.cpu0.itb.wrAccesses                    5941809                       # TLB accesses on write requests
system.cpu0.itb.rdMisses                            0                       # TLB misses on read requests
system.cpu0.itb.wrMisses                        27413                       # TLB misses on write requests
system.cpu0.workload.numSyscalls                    1                       # Number of system calls
system.cpu0.pwrStateResidencyTicks::ON    15267344125                       # Cumulative time (in ticks) in various power states
system.cpu0.numCycles                        30534688                       # number of cpu cycles simulated
system.cpu0.numWorkItemsStarted                     0                       # number of work items this cpu started
system.cpu0.numWorkItemsCompleted                   0                       # number of work items this cpu completed
system.cpu0.fetch.icacheStallCycles           6078901                       # Number of cycles fetch is stalled on an Icache miss
system.cpu0.fetch.Insts                      21001200                       # Number of instructions fetch has processed
system.cpu0.fetch.Branches                    7214426                       # Number of branches that fetch encountered
system.cpu0.fetch.predictedBranches           3234553                       # Number of branches that fetch has predicted taken
system.cpu0.fetch.Cycles                     23913699                       # Number of cycles fetch has run and was not squashing or blocked
system.cpu0.fetch.SquashCycles                 666760                       # Number of cycles fetch has spent squashing
system.cpu0.fetch.TlbCycles                      1452                       # Number of cycles fetch has spent waiting for tlb
system.cpu0.fetch.MiscStallCycles                5771                       # Number of cycles fetch has spent waiting on interrupts, or bad addresses, or out of MSHRs
system.cpu0.fetch.PendingTrapStallCycles       199102                       # Number of stall cycles due to pending traps
system.cpu0.fetch.CacheLines                  5914396                       # Number of cache lines fetched
system.cpu0.fetch.IcacheSquashes                54647                       # Number of outstanding Icache misses that were squashed
system.cpu0.fetch.ItlbSquashes                     36                       # Number of outstanding ITLB misses that were squashed
system.cpu0.fetch.rateDist::samples          30532305                       # Number of instructions fetched each cycle (Total)
system.cpu0.fetch.rateDist::mean             1.385691                       # Number of instructions fetched each cycle (Total)
system.cpu0.fetch.rateDist::stdev            2.713636                       # Number of instructions fetched each cycle (Total)
system.cpu0.fetch.rateDist::underflows              0      0.00%      0.00% # Number of instructions fetched each cycle (Total)
system.cpu0.fetch.rateDist::0                22438893     73.49%     73.49% # Number of instructions fetched each cycle (Total)
system.cpu0.fetch.rateDist::1                  102036      0.33%     73.83% # Number of instructions fetched each cycle (Total)
system.cpu0.fetch.rateDist::2                 2877445      9.42%     83.25% # Number of instructions fetched each cycle (Total)
system.cpu0.fetch.rateDist::3                  119800      0.39%     83.64% # Number of instructions fetched each cycle (Total)
system.cpu0.fetch.rateDist::4                  556640      1.82%     85.47% # Number of instructions fetched each cycle (Total)
system.cpu0.fetch.rateDist::5                  282540      0.93%     86.39% # Number of instructions fetched each cycle (Total)
system.cpu0.fetch.rateDist::6                  343435      1.12%     87.52% # Number of instructions fetched each cycle (Total)
system.cpu0.fetch.rateDist::7                   99979      0.33%     87.84% # Number of instructions fetched each cycle (Total)
system.cpu0.fetch.rateDist::8                 3711537     12.16%    100.00% # Number of instructions fetched each cycle (Total)
system.cpu0.fetch.rateDist::overflows               0      0.00%    100.00% # Number of instructions fetched each cycle (Total)
system.cpu0.fetch.rateDist::min_value               0                       # Number of instructions fetched each cycle (Total)
system.cpu0.fetch.rateDist::max_value               8                       # Number of instructions fetched each cycle (Total)
system.cpu0.fetch.rateDist::total            30532305                       # Number of instructions fetched each cycle (Total)
system.cpu0.fetch.branchRate                 0.236270                       # Number of branch fetches per cycle
system.cpu0.fetch.rate                       0.687782                       # Number of inst fetches per cycle
system.cpu0.decode.IdleCycles                 3294776                       # Number of cycles decode is idle
system.cpu0.decode.BlockedCycles             21297087                       # Number of cycles decode is blocked
system.cpu0.decode.RunCycles                  4345013                       # Number of cycles decode is running
system.cpu0.decode.UnblockCycles              1262049                       # Number of cycles decode is unblocking
system.cpu0.decode.SquashCycles                333380                       # Number of cycles decode is squashing
system.cpu0.decode.DecodedInsts              35998799                       # Number of instructions handled by decode
system.cpu0.rename.SquashCycles                333380                       # Number of cycles rename is squashing
system.cpu0.rename.IdleCycles                 3794467                       # Number of cycles rename is idle
system.cpu0.rename.BlockCycles               17056926                       # Number of cycles rename is blocking
system.cpu0.rename.serializeStallCycles        148454                       # count of cycles rename stalled for serializing inst
system.cpu0.rename.RunCycles                  4861416                       # Number of cycles rename is running
system.cpu0.rename.UnblockCycles              4337662                       # Number of cycles rename is unblocking
system.cpu0.rename.RenamedInsts              34525492                       # Number of instructions processed by rename
system.cpu0.rename.ROBFullEvents                78732                       # Number of times rename has blocked due to ROB full
system.cpu0.rename.IQFullEvents               3815597                       # Number of times rename has blocked due to IQ full
system.cpu0.rename.LQFullEvents                 91492                       # Number of times rename has blocked due to LQ full
system.cpu0.rename.SQFullEvents                196561                       # Number of times rename has blocked due to SQ full
system.cpu0.rename.RenamedOperands           41090973                       # Number of destination operands rename has renamed
system.cpu0.rename.RenameLookups             95834890                       # Number of register rename lookups that rename has made
system.cpu0.rename.int_rename_lookups        45352744                       # Number of integer rename lookups
system.cpu0.rename.fp_rename_lookups           185247                       # Number of floating rename lookups
system.cpu0.rename.CommittedMaps             14611205                       # Number of HB maps that are committed
system.cpu0.rename.UndoneMaps                26479756                       # Number of HB maps that are undone due to squashing
system.cpu0.rename.serializingInsts              1776                       # count of serializing insts renamed
system.cpu0.rename.tempSerializingInsts          2121                       # count of temporary serializing insts renamed
system.cpu0.rename.skidInsts                  7753241                       # count of insts added to the skid buffer
system.cpu0.memDep0.insertedLoads             6138786                       # Number of loads inserted to the mem dependence unit.
system.cpu0.memDep0.insertedStores             370067                       # Number of stores inserted to the mem dependence unit.
system.cpu0.memDep0.conflictingLoads            22360                       # Number of conflicting loads.
system.cpu0.memDep0.conflictingStores           24307                       # Number of conflicting stores.
system.cpu0.iq.iqInstsAdded                  32576188                       # Number of instructions added to the IQ (excludes non-spec)
system.cpu0.iq.iqNonSpecInstsAdded              24255                       # Number of non-speculative instructions added to the IQ
system.cpu0.iq.iqInstsIssued                 23423877                       # Number of instructions issued
system.cpu0.iq.iqSquashedInstsIssued            36613                       # Number of squashed instructions issued
system.cpu0.iq.iqSquashedInstsExamined       20417091                       # Number of squashed instructions iterated over during squash; mainly for profiling
system.cpu0.iq.iqSquashedOperandsExamined     42476149                       # Number of squashed operands that are examined and possibly removed from graph
system.cpu0.iq.iqSquashedNonSpecRemoved         24254                       # Number of squashed non-spec instructions that were removed
system.cpu0.iq.issued_per_cycle::samples     30532305                       # Number of insts issued each cycle
system.cpu0.iq.issued_per_cycle::mean        0.767183                       # Number of insts issued each cycle
system.cpu0.iq.issued_per_cycle::stdev       1.497361                       # Number of insts issued each cycle
system.cpu0.iq.issued_per_cycle::underflows            0      0.00%      0.00% # Number of insts issued each cycle
system.cpu0.iq.issued_per_cycle::0           21581946     70.69%     70.69% # Number of insts issued each cycle
system.cpu0.iq.issued_per_cycle::1            3143494     10.30%     80.98% # Number of insts issued each cycle
system.cpu0.iq.issued_per_cycle::2            1880640      6.16%     87.14% # Number of insts issued each cycle
system.cpu0.iq.issued_per_cycle::3            1343659      4.40%     91.54% # Number of insts issued each cycle
system.cpu0.iq.issued_per_cycle::4            1424591      4.67%     96.21% # Number of insts issued each cycle
system.cpu0.iq.issued_per_cycle::5             517454      1.69%     97.90% # Number of insts issued each cycle
system.cpu0.iq.issued_per_cycle::6             384773      1.26%     99.16% # Number of insts issued each cycle
system.cpu0.iq.issued_per_cycle::7             152130      0.50%     99.66% # Number of insts issued each cycle
system.cpu0.iq.issued_per_cycle::8             103618      0.34%    100.00% # Number of insts issued each cycle
system.cpu0.iq.issued_per_cycle::overflows            0      0.00%    100.00% # Number of insts issued each cycle
system.cpu0.iq.issued_per_cycle::min_value            0                       # Number of insts issued each cycle
system.cpu0.iq.issued_per_cycle::max_value            8                       # Number of insts issued each cycle
system.cpu0.iq.issued_per_cycle::total       30532305                       # Number of insts issued each cycle
system.cpu0.iq.fu_full::No_OpClass                  0      0.00%      0.00% # attempts to use FU when none available
system.cpu0.iq.fu_full::IntAlu                  60963     72.11%     72.11% # attempts to use FU when none available
system.cpu0.iq.fu_full::IntMult                     0      0.00%     72.11% # attempts to use FU when none available
system.cpu0.iq.fu_full::IntDiv                      0      0.00%     72.11% # attempts to use FU when none available
system.cpu0.iq.fu_full::FloatAdd                 5367      6.35%     78.46% # attempts to use FU when none available
system.cpu0.iq.fu_full::FloatCmp                    0      0.00%     78.46% # attempts to use FU when none available
system.cpu0.iq.fu_full::FloatCvt                    0      0.00%     78.46% # attempts to use FU when none available
system.cpu0.iq.fu_full::FloatMult                   0      0.00%     78.46% # attempts to use FU when none available
system.cpu0.iq.fu_full::FloatMultAcc                0      0.00%     78.46% # attempts to use FU when none available
system.cpu0.iq.fu_full::FloatDiv                    0      0.00%     78.46% # attempts to use FU when none available
system.cpu0.iq.fu_full::FloatMisc                   0      0.00%     78.46% # attempts to use FU when none available
system.cpu0.iq.fu_full::FloatSqrt                   0      0.00%     78.46% # attempts to use FU when none available
system.cpu0.iq.fu_full::SimdAdd                     0      0.00%     78.46% # attempts to use FU when none available
system.cpu0.iq.fu_full::SimdAddAcc                  0      0.00%     78.46% # attempts to use FU when none available
system.cpu0.iq.fu_full::SimdAlu                     0      0.00%     78.46% # attempts to use FU when none available
system.cpu0.iq.fu_full::SimdCmp                     0      0.00%     78.46% # attempts to use FU when none available
system.cpu0.iq.fu_full::SimdCvt                     0      0.00%     78.46% # attempts to use FU when none available
system.cpu0.iq.fu_full::SimdMisc                    0      0.00%     78.46% # attempts to use FU when none available
system.cpu0.iq.fu_full::SimdMult                    0      0.00%     78.46% # attempts to use FU when none available
system.cpu0.iq.fu_full::SimdMultAcc                 0      0.00%     78.46% # attempts to use FU when none available
system.cpu0.iq.fu_full::SimdShift                   0      0.00%     78.46% # attempts to use FU when none available
system.cpu0.iq.fu_full::SimdShiftAcc                0      0.00%     78.46% # attempts to use FU when none available
system.cpu0.iq.fu_full::SimdSqrt                    0      0.00%     78.46% # attempts to use FU when none available
system.cpu0.iq.fu_full::SimdFloatAdd                0      0.00%     78.46% # attempts to use FU when none available
system.cpu0.iq.fu_full::SimdFloatAlu                0      0.00%     78.46% # attempts to use FU when none available
system.cpu0.iq.fu_full::SimdFloatCmp                0      0.00%     78.46% # attempts to use FU when none available
system.cpu0.iq.fu_full::SimdFloatCvt                0      0.00%     78.46% # attempts to use FU when none available
system.cpu0.iq.fu_full::SimdFloatDiv                0      0.00%     78.46% # attempts to use FU when none available
system.cpu0.iq.fu_full::SimdFloatMisc               0      0.00%     78.46% # attempts to use FU when none available
system.cpu0.iq.fu_full::SimdFloatMult               0      0.00%     78.46% # attempts to use FU when none available
system.cpu0.iq.fu_full::SimdFloatMultAcc            0      0.00%     78.46% # attempts to use FU when none available
system.cpu0.iq.fu_full::SimdFloatSqrt               0      0.00%     78.46% # attempts to use FU when none available
system.cpu0.iq.fu_full::MemRead                 15994     18.92%     97.38% # attempts to use FU when none available
system.cpu0.iq.fu_full::MemWrite                 1395      1.65%     99.03% # attempts to use FU when none available
system.cpu0.iq.fu_full::FloatMemRead              650      0.77%     99.80% # attempts to use FU when none available
system.cpu0.iq.fu_full::FloatMemWrite             169      0.20%    100.00% # attempts to use FU when none available
system.cpu0.iq.fu_full::IprAccess                   0      0.00%    100.00% # attempts to use FU when none available
system.cpu0.iq.fu_full::InstPrefetch                0      0.00%    100.00% # attempts to use FU when none available
system.cpu0.iq.FU_type_0::No_OpClass            89555      0.38%      0.38% # Type of FU issued
system.cpu0.iq.FU_type_0::IntAlu             19216753     82.04%     82.42% # Type of FU issued
system.cpu0.iq.FU_type_0::IntMult                5648      0.02%     82.45% # Type of FU issued
system.cpu0.iq.FU_type_0::IntDiv                46624      0.20%     82.64% # Type of FU issued
system.cpu0.iq.FU_type_0::FloatAdd              67112      0.29%     82.93% # Type of FU issued
system.cpu0.iq.FU_type_0::FloatCmp                  0      0.00%     82.93% # Type of FU issued
system.cpu0.iq.FU_type_0::FloatCvt                  0      0.00%     82.93% # Type of FU issued
system.cpu0.iq.FU_type_0::FloatMult                 0      0.00%     82.93% # Type of FU issued
system.cpu0.iq.FU_type_0::FloatMultAcc              0      0.00%     82.93% # Type of FU issued
system.cpu0.iq.FU_type_0::FloatDiv                  0      0.00%     82.93% # Type of FU issued
system.cpu0.iq.FU_type_0::FloatMisc                 0      0.00%     82.93% # Type of FU issued
system.cpu0.iq.FU_type_0::FloatSqrt                 0      0.00%     82.93% # Type of FU issued
system.cpu0.iq.FU_type_0::SimdAdd                   0      0.00%     82.93% # Type of FU issued
system.cpu0.iq.FU_type_0::SimdAddAcc                0      0.00%     82.93% # Type of FU issued
system.cpu0.iq.FU_type_0::SimdAlu                   0      0.00%     82.93% # Type of FU issued
system.cpu0.iq.FU_type_0::SimdCmp                   0      0.00%     82.93% # Type of FU issued
system.cpu0.iq.FU_type_0::SimdCvt                   0      0.00%     82.93% # Type of FU issued
system.cpu0.iq.FU_type_0::SimdMisc                  0      0.00%     82.93% # Type of FU issued
system.cpu0.iq.FU_type_0::SimdMult                  0      0.00%     82.93% # Type of FU issued
system.cpu0.iq.FU_type_0::SimdMultAcc               0      0.00%     82.93% # Type of FU issued
system.cpu0.iq.FU_type_0::SimdShift                 0      0.00%     82.93% # Type of FU issued
system.cpu0.iq.FU_type_0::SimdShiftAcc              0      0.00%     82.93% # Type of FU issued
system.cpu0.iq.FU_type_0::SimdSqrt                  0      0.00%     82.93% # Type of FU issued
system.cpu0.iq.FU_type_0::SimdFloatAdd              0      0.00%     82.93% # Type of FU issued
system.cpu0.iq.FU_type_0::SimdFloatAlu              0      0.00%     82.93% # Type of FU issued
system.cpu0.iq.FU_type_0::SimdFloatCmp              0      0.00%     82.93% # Type of FU issued
system.cpu0.iq.FU_type_0::SimdFloatCvt              0      0.00%     82.93% # Type of FU issued
system.cpu0.iq.FU_type_0::SimdFloatDiv              0      0.00%     82.93% # Type of FU issued
system.cpu0.iq.FU_type_0::SimdFloatMisc             0      0.00%     82.93% # Type of FU issued
system.cpu0.iq.FU_type_0::SimdFloatMult             0      0.00%     82.93% # Type of FU issued
system.cpu0.iq.FU_type_0::SimdFloatMultAcc            0      0.00%     82.93% # Type of FU issued
system.cpu0.iq.FU_type_0::SimdFloatSqrt             0      0.00%     82.93% # Type of FU issued
system.cpu0.iq.FU_type_0::MemRead             3719673     15.88%     98.81% # Type of FU issued
system.cpu0.iq.FU_type_0::MemWrite             264941      1.13%     99.94% # Type of FU issued
system.cpu0.iq.FU_type_0::FloatMemRead          12935      0.06%    100.00% # Type of FU issued
system.cpu0.iq.FU_type_0::FloatMemWrite           636      0.00%    100.00% # Type of FU issued
system.cpu0.iq.FU_type_0::IprAccess                 0      0.00%    100.00% # Type of FU issued
system.cpu0.iq.FU_type_0::InstPrefetch              0      0.00%    100.00% # Type of FU issued
system.cpu0.iq.FU_type_0::total              23423877                       # Type of FU issued
system.cpu0.iq.rate                          0.767124                       # Inst issue rate
system.cpu0.iq.fu_busy_cnt                      84538                       # FU busy when requested
system.cpu0.iq.fu_busy_rate                  0.003609                       # FU busy rate (busy events/executed inst)
system.cpu0.iq.int_inst_queue_reads          77332461                       # Number of integer instruction queue reads
system.cpu0.iq.int_inst_queue_writes         52856988                       # Number of integer instruction queue writes
system.cpu0.iq.int_inst_queue_wakeup_accesses     22310411                       # Number of integer instruction queue wakeup accesses
system.cpu0.iq.fp_inst_queue_reads             168744                       # Number of floating instruction queue reads
system.cpu0.iq.fp_inst_queue_writes            160560                       # Number of floating instruction queue writes
system.cpu0.iq.fp_inst_queue_wakeup_accesses        73189                       # Number of floating instruction queue wakeup accesses
system.cpu0.iq.vec_inst_queue_reads                 0                       # Number of vector instruction queue reads
system.cpu0.iq.vec_inst_queue_writes                0                       # Number of vector instruction queue writes
system.cpu0.iq.vec_inst_queue_wakeup_accesses            0                       # Number of vector instruction queue wakeup accesses
system.cpu0.iq.int_alu_accesses              23331927                       # Number of integer alu accesses
system.cpu0.iq.fp_alu_accesses                  86933                       # Number of floating point alu accesses
system.cpu0.iq.vec_alu_accesses                     0                       # Number of vector alu accesses
system.cpu0.iew.lsq.thread0.forwLoads           25899                       # Number of loads that had data forwarded from stores
system.cpu0.iew.lsq.thread0.invAddrLoads            0                       # Number of loads ignored due to an invalid address
system.cpu0.iew.lsq.thread0.squashedLoads      3852581                       # Number of loads squashed
system.cpu0.iew.lsq.thread0.ignoredResponses          711                       # Number of memory responses ignored because the instruction is squashed
system.cpu0.iew.lsq.thread0.memOrderViolation           14                       # Number of memory ordering violations
system.cpu0.iew.lsq.thread0.squashedStores       236659                       # Number of stores squashed
system.cpu0.iew.lsq.thread0.invAddrSwpfs            0                       # Number of software prefetches ignored due to an invalid address
system.cpu0.iew.lsq.thread0.blockedLoads            0                       # Number of blocked loads due to partial load-store forwarding
system.cpu0.iew.lsq.thread0.rescheduledLoads          225                       # Number of loads that were rescheduled
system.cpu0.iew.lsq.thread0.cacheBlocked         8234                       # Number of times an access to memory failed due to the cache being blocked
system.cpu0.iew.iewIdleCycles                       0                       # Number of cycles IEW is idle
system.cpu0.iew.iewSquashCycles                333380                       # Number of cycles IEW is squashing
system.cpu0.iew.iewBlockCycles               13799478                       # Number of cycles IEW is blocking
system.cpu0.iew.iewUnblockCycles               699353                       # Number of cycles IEW is unblocking
system.cpu0.iew.iewDispatchedInsts           32600443                       # Number of instructions dispatched to IQ
system.cpu0.iew.iewDispSquashedInsts            21545                       # Number of squashed instructions skipped by dispatch
system.cpu0.iew.iewDispLoadInsts              6138786                       # Number of dispatched load instructions
system.cpu0.iew.iewDispStoreInsts              370067                       # Number of dispatched store instructions
system.cpu0.iew.iewDispNonSpecInsts              9120                       # Number of dispatched non-speculative instructions
system.cpu0.iew.iewIQFullEvents                 40212                       # Number of times the IQ has become full, causing a stall
system.cpu0.iew.iewLSQFullEvents                60789                       # Number of times the LSQ has become full, causing a stall
system.cpu0.iew.memOrderViolationEvents            14                       # Number of memory order violations
system.cpu0.iew.predictedTakenIncorrect        169514                       # Number of branches that were predicted taken incorrectly
system.cpu0.iew.predictedNotTakenIncorrect       202575                       # Number of branches that were predicted not taken incorrectly
system.cpu0.iew.branchMispredicts              372089                       # Number of branch mispredicts detected at execute
system.cpu0.iew.iewExecutedInsts             22872202                       # Number of executed instructions
system.cpu0.iew.iewExecLoadInsts              3503117                       # Number of load instructions executed
system.cpu0.iew.iewExecSquashedInsts           551670                       # Number of squashed instructions skipped in execute
system.cpu0.iew.exec_swp                            0                       # number of swp insts executed
system.cpu0.iew.exec_nop                            0                       # number of nop insts executed
system.cpu0.iew.exec_refs                     3747414                       # number of memory reference insts executed
system.cpu0.iew.exec_branches                 2749982                       # Number of branches executed
system.cpu0.iew.exec_stores                    244297                       # Number of stores executed
system.cpu0.iew.exec_rate                    0.749056                       # Inst execution rate
system.cpu0.iew.wb_sent                      22471373                       # cumulative count of insts sent to commit
system.cpu0.iew.wb_count                     22383600                       # cumulative count of insts written-back
system.cpu0.iew.wb_producers                 16779499                       # num instructions producing a value
system.cpu0.iew.wb_consumers                 26570597                       # num instructions consuming a value
system.cpu0.iew.wb_rate                      0.733055                       # insts written-back per cycle
system.cpu0.iew.wb_fanout                    0.631506                       # average fanout of values written-back
system.cpu0.commit.commitSquashedInsts       20418587                       # The number of squashed insts skipped by commit
system.cpu0.commit.commitNonSpecStalls              1                       # The number of times commit has been forced to stall to communicate backwards
system.cpu0.commit.branchMispredicts           333370                       # The number of times a branch was mispredicted
system.cpu0.commit.committed_per_cycle::samples     27638355                       # Number of insts commited each cycle
system.cpu0.commit.committed_per_cycle::mean     0.440813                       # Number of insts commited each cycle
system.cpu0.commit.committed_per_cycle::stdev     1.149087                       # Number of insts commited each cycle
system.cpu0.commit.committed_per_cycle::underflows            0      0.00%      0.00% # Number of insts commited each cycle
system.cpu0.commit.committed_per_cycle::0     22323914     80.77%     80.77% # Number of insts commited each cycle
system.cpu0.commit.committed_per_cycle::1      2446291      8.85%     89.62% # Number of insts commited each cycle
system.cpu0.commit.committed_per_cycle::2       584360      2.11%     91.74% # Number of insts commited each cycle
system.cpu0.commit.committed_per_cycle::3      1596092      5.77%     97.51% # Number of insts commited each cycle
system.cpu0.commit.committed_per_cycle::4       293274      1.06%     98.57% # Number of insts commited each cycle
system.cpu0.commit.committed_per_cycle::5       158139      0.57%     99.15% # Number of insts commited each cycle
system.cpu0.commit.committed_per_cycle::6        28960      0.10%     99.25% # Number of insts commited each cycle
system.cpu0.commit.committed_per_cycle::7        16098      0.06%     99.31% # Number of insts commited each cycle
system.cpu0.commit.committed_per_cycle::8       191227      0.69%    100.00% # Number of insts commited each cycle
system.cpu0.commit.committed_per_cycle::overflows            0      0.00%    100.00% # Number of insts commited each cycle
system.cpu0.commit.committed_per_cycle::min_value            0                       # Number of insts commited each cycle
system.cpu0.commit.committed_per_cycle::max_value            8                       # Number of insts commited each cycle
system.cpu0.commit.committed_per_cycle::total     27638355                       # Number of insts commited each cycle
system.cpu0.commit.committedInsts             6097965                       # Number of instructions committed
system.cpu0.commit.committedOps              12183340                       # Number of ops (including micro ops) committed
system.cpu0.commit.swp_count                        0                       # Number of s/w prefetches committed
system.cpu0.commit.refs                       2419609                       # Number of memory references committed
system.cpu0.commit.loads                      2286201                       # Number of loads committed
system.cpu0.commit.membars                          0                       # Number of memory barriers committed
system.cpu0.commit.branches                   2179857                       # Number of branches committed
system.cpu0.commit.vec_insts                        0                       # Number of committed Vector instructions.
system.cpu0.commit.fp_insts                     53326                       # Number of committed floating point instructions.
system.cpu0.commit.int_insts                 12129349                       # Number of committed integer instructions.
system.cpu0.commit.function_calls               23529                       # Number of function calls committed.
system.cpu0.commit.op_class_0::No_OpClass        16140      0.13%      0.13% # Class of committed instruction
system.cpu0.commit.op_class_0::IntAlu         9661909     79.30%     79.44% # Class of committed instruction
system.cpu0.commit.op_class_0::IntMult            941      0.01%     79.44% # Class of committed instruction
system.cpu0.commit.op_class_0::IntDiv           39153      0.32%     79.77% # Class of committed instruction
system.cpu0.commit.op_class_0::FloatAdd         45588      0.37%     80.14% # Class of committed instruction
system.cpu0.commit.op_class_0::FloatCmp             0      0.00%     80.14% # Class of committed instruction
system.cpu0.commit.op_class_0::FloatCvt             0      0.00%     80.14% # Class of committed instruction
system.cpu0.commit.op_class_0::FloatMult            0      0.00%     80.14% # Class of committed instruction
system.cpu0.commit.op_class_0::FloatMultAcc            0      0.00%     80.14% # Class of committed instruction
system.cpu0.commit.op_class_0::FloatDiv             0      0.00%     80.14% # Class of committed instruction
system.cpu0.commit.op_class_0::FloatMisc            0      0.00%     80.14% # Class of committed instruction
system.cpu0.commit.op_class_0::FloatSqrt            0      0.00%     80.14% # Class of committed instruction
system.cpu0.commit.op_class_0::SimdAdd              0      0.00%     80.14% # Class of committed instruction
system.cpu0.commit.op_class_0::SimdAddAcc            0      0.00%     80.14% # Class of committed instruction
system.cpu0.commit.op_class_0::SimdAlu              0      0.00%     80.14% # Class of committed instruction
system.cpu0.commit.op_class_0::SimdCmp              0      0.00%     80.14% # Class of committed instruction
system.cpu0.commit.op_class_0::SimdCvt              0      0.00%     80.14% # Class of committed instruction
system.cpu0.commit.op_class_0::SimdMisc             0      0.00%     80.14% # Class of committed instruction
system.cpu0.commit.op_class_0::SimdMult             0      0.00%     80.14% # Class of committed instruction
system.cpu0.commit.op_class_0::SimdMultAcc            0      0.00%     80.14% # Class of committed instruction
system.cpu0.commit.op_class_0::SimdShift            0      0.00%     80.14% # Class of committed instruction
system.cpu0.commit.op_class_0::SimdShiftAcc            0      0.00%     80.14% # Class of committed instruction
system.cpu0.commit.op_class_0::SimdSqrt             0      0.00%     80.14% # Class of committed instruction
system.cpu0.commit.op_class_0::SimdFloatAdd            0      0.00%     80.14% # Class of committed instruction
system.cpu0.commit.op_class_0::SimdFloatAlu            0      0.00%     80.14% # Class of committed instruction
system.cpu0.commit.op_class_0::SimdFloatCmp            0      0.00%     80.14% # Class of committed instruction
system.cpu0.commit.op_class_0::SimdFloatCvt            0      0.00%     80.14% # Class of committed instruction
system.cpu0.commit.op_class_0::SimdFloatDiv            0      0.00%     80.14% # Class of committed instruction
system.cpu0.commit.op_class_0::SimdFloatMisc            0      0.00%     80.14% # Class of committed instruction
system.cpu0.commit.op_class_0::SimdFloatMult            0      0.00%     80.14% # Class of committed instruction
system.cpu0.commit.op_class_0::SimdFloatMultAcc            0      0.00%     80.14% # Class of committed instruction
system.cpu0.commit.op_class_0::SimdFloatSqrt            0      0.00%     80.14% # Class of committed instruction
system.cpu0.commit.op_class_0::MemRead        2278463     18.70%     98.84% # Class of committed instruction
system.cpu0.commit.op_class_0::MemWrite        133408      1.10%     99.94% # Class of committed instruction
system.cpu0.commit.op_class_0::FloatMemRead         7738      0.06%    100.00% # Class of committed instruction
system.cpu0.commit.op_class_0::FloatMemWrite            0      0.00%    100.00% # Class of committed instruction
system.cpu0.commit.op_class_0::IprAccess            0      0.00%    100.00% # Class of committed instruction
system.cpu0.commit.op_class_0::InstPrefetch            0      0.00%    100.00% # Class of committed instruction
system.cpu0.commit.op_class_0::total         12183340                       # Class of committed instruction
system.cpu0.commit.bw_lim_events               191227                       # number cycles where commit BW limit reached
system.cpu0.rob.rob_reads                    60049055                       # The number of ROB reads
system.cpu0.rob.rob_writes                   68107246                       # The number of ROB writes
system.cpu0.timesIdled                            674                       # Number of times that the entire CPU went into an idle state and unscheduled itself
system.cpu0.idleCycles                           2383                       # Total number of cycles that the CPU has spent unscheduled due to idling
system.cpu0.committedInsts                    6097965                       # Number of Instructions Simulated
system.cpu0.committedOps                     12183340                       # Number of Ops (including micro ops) Simulated
system.cpu0.cpi                              5.007357                       # CPI: Cycles Per Instruction
system.cpu0.cpi_total                        5.007357                       # CPI: Total CPI of All Threads
system.cpu0.ipc                              0.199706                       # IPC: Instructions Per Cycle
system.cpu0.ipc_total                        0.199706                       # IPC: Total IPC of All Threads
system.cpu0.int_regfile_reads                22933538                       # number of integer regfile reads
system.cpu0.int_regfile_writes               19421954                       # number of integer regfile writes
system.cpu0.fp_regfile_reads                   130602                       # number of floating regfile reads
system.cpu0.fp_regfile_writes                   65176                       # number of floating regfile writes
system.cpu0.cc_regfile_reads                 14424066                       # number of cc regfile reads
system.cpu0.cc_regfile_writes                 6209209                       # number of cc regfile writes
system.cpu0.misc_regfile_reads               12026422                       # number of misc regfile reads
system.cpu0.dcache.tags.pwrStateResidencyTicks::UNDEFINED  15267344125                       # Cumulative time (in ticks) in various power states
system.cpu0.dcache.tags.replacements          1200256                       # number of replacements
system.cpu0.dcache.tags.tagsinuse                 512                       # Cycle average of tags in use
system.cpu0.dcache.tags.total_refs            1564059                       # Total number of references to valid blocks.
system.cpu0.dcache.tags.sampled_refs          1200256                       # Sample count of references to valid blocks.
system.cpu0.dcache.tags.avg_refs             1.303105                       # Average number of references to valid blocks.
system.cpu0.dcache.tags.warmup_cycle                0                       # Cycle when the warmup percentage was hit.
system.cpu0.dcache.tags.occ_blocks::cpu0.data          512                       # Average occupied blocks per requestor
system.cpu0.dcache.tags.occ_percent::cpu0.data            1                       # Average percentage of cache occupancy
system.cpu0.dcache.tags.occ_percent::total            1                       # Average percentage of cache occupancy
system.cpu0.dcache.tags.occ_task_id_blocks::1024          512                       # Occupied blocks per task id
system.cpu0.dcache.tags.age_task_id_blocks_1024::0          469                       # Occupied blocks per task id
system.cpu0.dcache.tags.age_task_id_blocks_1024::1           43                       # Occupied blocks per task id
system.cpu0.dcache.tags.occ_task_id_percent::1024            1                       # Percentage of cache occupancy per task id
system.cpu0.dcache.tags.tag_accesses         15555980                       # Number of tag accesses
system.cpu0.dcache.tags.data_accesses        15555980                       # Number of data accesses
system.cpu0.dcache.pwrStateResidencyTicks::UNDEFINED  15267344125                       # Cumulative time (in ticks) in various power states
system.cpu0.dcache.ReadReq_hits::cpu0.data      1435064                       # number of ReadReq hits
system.cpu0.dcache.ReadReq_hits::total        1435064                       # number of ReadReq hits
system.cpu0.dcache.WriteReq_hits::cpu0.data       127476                       # number of WriteReq hits
system.cpu0.dcache.WriteReq_hits::total        127476                       # number of WriteReq hits
system.cpu0.dcache.demand_hits::cpu0.data      1562540                       # number of demand (read+write) hits
system.cpu0.dcache.demand_hits::total         1562540                       # number of demand (read+write) hits
system.cpu0.dcache.overall_hits::cpu0.data      1562540                       # number of overall hits
system.cpu0.dcache.overall_hits::total        1562540                       # number of overall hits
system.cpu0.dcache.ReadReq_misses::cpu0.data      2020459                       # number of ReadReq misses
system.cpu0.dcache.ReadReq_misses::total      2020459                       # number of ReadReq misses
system.cpu0.dcache.WriteReq_misses::cpu0.data         5932                       # number of WriteReq misses
system.cpu0.dcache.WriteReq_misses::total         5932                       # number of WriteReq misses
system.cpu0.dcache.demand_misses::cpu0.data      2026391                       # number of demand (read+write) misses
system.cpu0.dcache.demand_misses::total       2026391                       # number of demand (read+write) misses
system.cpu0.dcache.overall_misses::cpu0.data      2026391                       # number of overall misses
system.cpu0.dcache.overall_misses::total      2026391                       # number of overall misses
system.cpu0.dcache.ReadReq_miss_latency::cpu0.data  28097935500                       # number of ReadReq miss cycles
system.cpu0.dcache.ReadReq_miss_latency::total  28097935500                       # number of ReadReq miss cycles
system.cpu0.dcache.WriteReq_miss_latency::cpu0.data    468676480                       # number of WriteReq miss cycles
system.cpu0.dcache.WriteReq_miss_latency::total    468676480                       # number of WriteReq miss cycles
system.cpu0.dcache.demand_miss_latency::cpu0.data  28566611980                       # number of demand (read+write) miss cycles
system.cpu0.dcache.demand_miss_latency::total  28566611980                       # number of demand (read+write) miss cycles
system.cpu0.dcache.overall_miss_latency::cpu0.data  28566611980                       # number of overall miss cycles
system.cpu0.dcache.overall_miss_latency::total  28566611980                       # number of overall miss cycles
system.cpu0.dcache.ReadReq_accesses::cpu0.data      3455523                       # number of ReadReq accesses(hits+misses)
system.cpu0.dcache.ReadReq_accesses::total      3455523                       # number of ReadReq accesses(hits+misses)
system.cpu0.dcache.WriteReq_accesses::cpu0.data       133408                       # number of WriteReq accesses(hits+misses)
system.cpu0.dcache.WriteReq_accesses::total       133408                       # number of WriteReq accesses(hits+misses)
system.cpu0.dcache.demand_accesses::cpu0.data      3588931                       # number of demand (read+write) accesses
system.cpu0.dcache.demand_accesses::total      3588931                       # number of demand (read+write) accesses
system.cpu0.dcache.overall_accesses::cpu0.data      3588931                       # number of overall (read+write) accesses
system.cpu0.dcache.overall_accesses::total      3588931                       # number of overall (read+write) accesses
system.cpu0.dcache.ReadReq_miss_rate::cpu0.data     0.584704                       # miss rate for ReadReq accesses
system.cpu0.dcache.ReadReq_miss_rate::total     0.584704                       # miss rate for ReadReq accesses
system.cpu0.dcache.WriteReq_miss_rate::cpu0.data     0.044465                       # miss rate for WriteReq accesses
system.cpu0.dcache.WriteReq_miss_rate::total     0.044465                       # miss rate for WriteReq accesses
system.cpu0.dcache.demand_miss_rate::cpu0.data     0.564622                       # miss rate for demand accesses
system.cpu0.dcache.demand_miss_rate::total     0.564622                       # miss rate for demand accesses
system.cpu0.dcache.overall_miss_rate::cpu0.data     0.564622                       # miss rate for overall accesses
system.cpu0.dcache.overall_miss_rate::total     0.564622                       # miss rate for overall accesses
system.cpu0.dcache.ReadReq_avg_miss_latency::cpu0.data 13906.709070                       # average ReadReq miss latency
system.cpu0.dcache.ReadReq_avg_miss_latency::total 13906.709070                       # average ReadReq miss latency
system.cpu0.dcache.WriteReq_avg_miss_latency::cpu0.data 79008.172623                       # average WriteReq miss latency
system.cpu0.dcache.WriteReq_avg_miss_latency::total 79008.172623                       # average WriteReq miss latency
system.cpu0.dcache.demand_avg_miss_latency::cpu0.data 14097.285262                       # average overall miss latency
system.cpu0.dcache.demand_avg_miss_latency::total 14097.285262                       # average overall miss latency
system.cpu0.dcache.overall_avg_miss_latency::cpu0.data 14097.285262                       # average overall miss latency
[...]
system.l2.demand_miss_rate::cpu0.data        0.002292                       # miss rate for demand accesses
system.l2.demand_miss_rate::total            0.002295                       # miss rate for demand accesses
system.l2.overall_miss_rate::cpu0.inst       0.095238                       # miss rate for overall accesses
system.l2.overall_miss_rate::cpu0.data       0.002292                       # miss rate for overall accesses
system.l2.overall_miss_rate::total           0.002295                       # miss rate for overall accesses
system.l2.ReadExReq_avg_miss_latency::cpu0.data 312962.948207                       # average ReadExReq miss latency
system.l2.ReadExReq_avg_miss_latency::total 312962.948207                       # average ReadExReq miss latency
system.l2.ReadCleanReq_avg_miss_latency::cpu0.inst       323500                       # average ReadCleanReq miss latency
system.l2.ReadCleanReq_avg_miss_latency::total       323500                       # average ReadCleanReq miss latency
system.l2.ReadSharedReq_avg_miss_latency::cpu0.data 279044.786096                       # average ReadSharedReq miss latency
system.l2.ReadSharedReq_avg_miss_latency::total 279044.786096                       # average ReadSharedReq miss latency
system.l2.demand_avg_miss_latency::cpu0.inst       323500                       # average overall miss latency
system.l2.demand_avg_miss_latency::cpu0.data 294518.175209                       # average overall miss latency
system.l2.demand_avg_miss_latency::total 294560.254083                       # average overall miss latency
system.l2.overall_avg_miss_latency::cpu0.inst       323500                       # average overall miss latency
system.l2.overall_avg_miss_latency::cpu0.data 294518.175209                       # average overall miss latency
system.l2.overall_avg_miss_latency::total 294560.254083                       # average overall miss latency
system.l2.blocked_cycles::no_mshrs                  0                       # number of cycles access was blocked
system.l2.blocked_cycles::no_targets                0                       # number of cycles access was blocked
system.l2.blocked::no_mshrs                         0                       # number of cycles access was blocked
system.l2.blocked::no_targets                       0                       # number of cycles access was blocked
system.l2.avg_blocked_cycles::no_mshrs            nan                       # average number of cycles each access was blocked
system.l2.avg_blocked_cycles::no_targets          nan                       # average number of cycles each access was blocked
system.l2.writebacks::writebacks                   67                       # number of writebacks
system.l2.writebacks::total                        67                       # number of writebacks
system.l2.ReadExReq_mshr_misses::cpu0.data         1255                       # number of ReadExReq MSHR misses
system.l2.ReadExReq_mshr_misses::total           1255                       # number of ReadExReq MSHR misses
system.l2.ReadCleanReq_mshr_misses::cpu0.inst            4                       # number of ReadCleanReq MSHR misses
system.l2.ReadCleanReq_mshr_misses::total            4                       # number of ReadCleanReq MSHR misses
system.l2.ReadSharedReq_mshr_misses::cpu0.data         1496                       # number of ReadSharedReq MSHR misses
system.l2.ReadSharedReq_mshr_misses::total         1496                       # number of ReadSharedReq MSHR misses
system.l2.demand_mshr_misses::cpu0.inst             4                       # number of demand (read+write) MSHR misses
system.l2.demand_mshr_misses::cpu0.data          2751                       # number of demand (read+write) MSHR misses
system.l2.demand_mshr_misses::total              2755                       # number of demand (read+write) MSHR misses
system.l2.overall_mshr_misses::cpu0.inst            4                       # number of overall MSHR misses
system.l2.overall_mshr_misses::cpu0.data         2751                       # number of overall MSHR misses
system.l2.overall_mshr_misses::total             2755                       # number of overall MSHR misses
system.l2.ReadExReq_mshr_miss_latency::cpu0.data    380218500                       # number of ReadExReq MSHR miss cycles
system.l2.ReadExReq_mshr_miss_latency::total    380218500                       # number of ReadExReq MSHR miss cycles
system.l2.ReadCleanReq_mshr_miss_latency::cpu0.inst      1254000                       # number of ReadCleanReq MSHR miss cycles
system.l2.ReadCleanReq_mshr_miss_latency::total      1254000                       # number of ReadCleanReq MSHR miss cycles
system.l2.ReadSharedReq_mshr_miss_latency::cpu0.data    402491000                       # number of ReadSharedReq MSHR miss cycles
system.l2.ReadSharedReq_mshr_miss_latency::total    402491000                       # number of ReadSharedReq MSHR miss cycles
system.l2.demand_mshr_miss_latency::cpu0.inst      1254000                       # number of demand (read+write) MSHR miss cycles
system.l2.demand_mshr_miss_latency::cpu0.data    782709500                       # number of demand (read+write) MSHR miss cycles
system.l2.demand_mshr_miss_latency::total    783963500                       # number of demand (read+write) MSHR miss cycles
system.l2.overall_mshr_miss_latency::cpu0.inst      1254000                       # number of overall MSHR miss cycles
system.l2.overall_mshr_miss_latency::cpu0.data    782709500                       # number of overall MSHR miss cycles
system.l2.overall_mshr_miss_latency::total    783963500                       # number of overall MSHR miss cycles
system.l2.ReadExReq_mshr_miss_rate::cpu0.data     0.212892                       # mshr miss rate for ReadExReq accesses
system.l2.ReadExReq_mshr_miss_rate::total     0.212892                       # mshr miss rate for ReadExReq accesses
system.l2.ReadCleanReq_mshr_miss_rate::cpu0.inst     0.095238                       # mshr miss rate for ReadCleanReq accesses
system.l2.ReadCleanReq_mshr_miss_rate::total     0.095238                       # mshr miss rate for ReadCleanReq accesses
system.l2.ReadSharedReq_mshr_miss_rate::cpu0.data     0.001253                       # mshr miss rate for ReadSharedReq accesses
system.l2.ReadSharedReq_mshr_miss_rate::total     0.001253                       # mshr miss rate for ReadSharedReq accesses
system.l2.demand_mshr_miss_rate::cpu0.inst     0.095238                       # mshr miss rate for demand accesses
system.l2.demand_mshr_miss_rate::cpu0.data     0.002292                       # mshr miss rate for demand accesses
system.l2.demand_mshr_miss_rate::total       0.002295                       # mshr miss rate for demand accesses
system.l2.overall_mshr_miss_rate::cpu0.inst     0.095238                       # mshr miss rate for overall accesses
system.l2.overall_mshr_miss_rate::cpu0.data     0.002292                       # mshr miss rate for overall accesses
system.l2.overall_mshr_miss_rate::total      0.002295                       # mshr miss rate for overall accesses
system.l2.ReadExReq_avg_mshr_miss_latency::cpu0.data 302962.948207                       # average ReadExReq mshr miss latency
system.l2.ReadExReq_avg_mshr_miss_latency::total 302962.948207                       # average ReadExReq mshr miss latency
system.l2.ReadCleanReq_avg_mshr_miss_latency::cpu0.inst       313500                       # average ReadCleanReq mshr miss latency
system.l2.ReadCleanReq_avg_mshr_miss_latency::total       313500                       # average ReadCleanReq mshr miss latency
system.l2.ReadSharedReq_avg_mshr_miss_latency::cpu0.data 269044.786096                       # average ReadSharedReq mshr miss latency
system.l2.ReadSharedReq_avg_mshr_miss_latency::total 269044.786096                       # average ReadSharedReq mshr miss latency
system.l2.demand_avg_mshr_miss_latency::cpu0.inst       313500                       # average overall mshr miss latency
system.l2.demand_avg_mshr_miss_latency::cpu0.data 284518.175209                       # average overall mshr miss latency
system.l2.demand_avg_mshr_miss_latency::total 284560.254083                       # average overall mshr miss latency
system.l2.overall_avg_mshr_miss_latency::cpu0.inst       313500                       # average overall mshr miss latency
system.l2.overall_avg_mshr_miss_latency::cpu0.data 284518.175209                       # average overall mshr miss latency
system.l2.overall_avg_mshr_miss_latency::total 284560.254083                       # average overall mshr miss latency
system.membus.snoop_filter.tot_requests          5510                       # Total number of requests made to the snoop filter.
system.membus.snoop_filter.hit_single_requests         2755                       # Number of requests hitting in the snoop filter with a single holder of the requested data.
system.membus.snoop_filter.hit_multi_requests            0                       # Number of requests hitting in the snoop filter with multiple (>1) holders of the requested data.
system.membus.snoop_filter.tot_snoops               0                       # Total number of snoops made to the snoop filter.
system.membus.snoop_filter.hit_single_snoops            0                       # Number of snoops hitting in the snoop filter with a single holder of the requested data.
system.membus.snoop_filter.hit_multi_snoops            0                       # Number of snoops hitting in the snoop filter with multiple (>1) holders of the requested data.
system.membus.pwrStateResidencyTicks::UNDEFINED  15267344125                       # Cumulative time (in ticks) in various power states
system.membus.trans_dist::ReadResp               1500                       # Transaction distribution
system.membus.trans_dist::WritebackDirty           67                       # Transaction distribution
system.membus.trans_dist::CleanEvict             2688                       # Transaction distribution
system.membus.trans_dist::ReadExReq              1255                       # Transaction distribution
system.membus.trans_dist::ReadExResp             1255                       # Transaction distribution
system.membus.trans_dist::ReadSharedReq          1500                       # Transaction distribution
system.membus.pkt_count_system.l2.mem_side::system.mem_ctrls.port         8265                       # Packet count per connected master and slave (bytes)
system.membus.pkt_count_system.l2.mem_side::total         8265                       # Packet count per connected master and slave (bytes)
system.membus.pkt_count::total                   8265                       # Packet count per connected master and slave (bytes)
system.membus.pkt_size_system.l2.mem_side::system.mem_ctrls.port       180608                       # Cumulative packet size per connected master and slave (bytes)
system.membus.pkt_size_system.l2.mem_side::total       180608                       # Cumulative packet size per connected master and slave (bytes)
system.membus.pkt_size::total                  180608                       # Cumulative packet size per connected master and slave (bytes)
system.membus.snoops                                0                       # Total snoops (count)
system.membus.snoopTraffic                          0                       # Total snoop traffic (bytes)
system.membus.snoop_fanout::samples              2755                       # Request fanout histogram
system.membus.snoop_fanout::mean                    0                       # Request fanout histogram
system.membus.snoop_fanout::stdev                   0                       # Request fanout histogram
system.membus.snoop_fanout::underflows              0      0.00%      0.00% # Request fanout histogram
system.membus.snoop_fanout::0                    2755    100.00%    100.00% # Request fanout histogram
system.membus.snoop_fanout::1                       0      0.00%    100.00% # Request fanout histogram
system.membus.snoop_fanout::overflows               0      0.00%    100.00% # Request fanout histogram
system.membus.snoop_fanout::min_value               0                       # Request fanout histogram
system.membus.snoop_fanout::max_value               0                       # Request fanout histogram
system.membus.snoop_fanout::total                2755                       # Request fanout histogram
system.membus.reqLayer12.occupancy            6493500                       # Layer occupancy (ticks)
system.membus.reqLayer12.utilization              0.0                       # Layer utilization (%)
system.membus.respLayer1.occupancy           15019000                       # Layer occupancy (ticks)
system.membus.respLayer1.utilization              0.1                       # Layer utilization (%)
system.tol2bus.snoop_filter.tot_requests      2400595                       # Total number of requests made to the snoop filter.
system.tol2bus.snoop_filter.hit_single_requests      1200299                       # Number of requests hitting in the snoop filter with a single holder of the requested data.
system.tol2bus.snoop_filter.hit_multi_requests         2819                       # Number of requests hitting in the snoop filter with multiple (>1) holders of the requested data.
system.tol2bus.snoop_filter.tot_snoops              3                       # Total number of snoops made to the snoop filter.
system.tol2bus.snoop_filter.hit_single_snoops            3                       # Number of snoops hitting in the snoop filter with a single holder of the requested data.
system.tol2bus.snoop_filter.hit_multi_snoops            0                       # Number of snoops hitting in the snoop filter with multiple (>1) holders of the requested data.
system.tol2bus.pwrStateResidencyTicks::UNDEFINED  15267344125                       # Cumulative time (in ticks) in various power states
system.tol2bus.trans_dist::ReadResp           1194403                       # Transaction distribution
system.tol2bus.trans_dist::WritebackDirty      1181140                       # Transaction distribution
system.tol2bus.trans_dist::WritebackClean           42                       # Transaction distribution
system.tol2bus.trans_dist::CleanEvict           21874                       # Transaction distribution
system.tol2bus.trans_dist::ReadExReq             5895                       # Transaction distribution
system.tol2bus.trans_dist::ReadExResp            5895                       # Transaction distribution
system.tol2bus.trans_dist::ReadCleanReq            42                       # Transaction distribution
system.tol2bus.trans_dist::ReadSharedReq      1194360                       # Transaction distribution
system.tol2bus.pkt_count_system.cpu0.icache.mem_side::system.l2.cpu_side          126                       # Packet count per connected master and slave (bytes)
system.tol2bus.pkt_count_system.cpu0.dcache.mem_side::system.l2.cpu_side      3600767                       # Packet count per connected master and slave (bytes)
system.tol2bus.pkt_count::total               3600893                       # Packet count per connected master and slave (bytes)
system.tol2bus.pkt_size_system.cpu0.icache.mem_side::system.l2.cpu_side         5376                       # Cumulative packet size per connected master and slave (bytes)
system.tol2bus.pkt_size_system.cpu0.dcache.mem_side::system.l2.cpu_side    152405056                       # Cumulative packet size per connected master and slave (bytes)
system.tol2bus.pkt_size::total              152410432                       # Cumulative packet size per connected master and slave (bytes)
system.tol2bus.snoops                            2758                       # Total snoops (count)
system.tol2bus.snoopTraffic                      4288                       # Total snoop traffic (bytes)
system.tol2bus.snoop_fanout::samples          1203055                       # Request fanout histogram
system.tol2bus.snoop_fanout::mean            0.002347                       # Request fanout histogram
system.tol2bus.snoop_fanout::stdev           0.048384                       # Request fanout histogram
system.tol2bus.snoop_fanout::underflows             0      0.00%      0.00% # Request fanout histogram
system.tol2bus.snoop_fanout::0                1200232     99.77%     99.77% # Request fanout histogram
system.tol2bus.snoop_fanout::1                   2823      0.23%    100.00% # Request fanout histogram
system.tol2bus.snoop_fanout::2                      0      0.00%    100.00% # Request fanout histogram
system.tol2bus.snoop_fanout::3                      0      0.00%    100.00% # Request fanout histogram
system.tol2bus.snoop_fanout::4                      0      0.00%    100.00% # Request fanout histogram
system.tol2bus.snoop_fanout::5                      0      0.00%    100.00% # Request fanout histogram
system.tol2bus.snoop_fanout::6                      0      0.00%    100.00% # Request fanout histogram
system.tol2bus.snoop_fanout::7                      0      0.00%    100.00% # Request fanout histogram
system.tol2bus.snoop_fanout::8                      0      0.00%    100.00% # Request fanout histogram
system.tol2bus.snoop_fanout::9                      0      0.00%    100.00% # Request fanout histogram
system.tol2bus.snoop_fanout::10                     0      0.00%    100.00% # Request fanout histogram
system.tol2bus.snoop_fanout::11                     0      0.00%    100.00% # Request fanout histogram
system.tol2bus.snoop_fanout::12                     0      0.00%    100.00% # Request fanout histogram
system.tol2bus.snoop_fanout::13                     0      0.00%    100.00% # Request fanout histogram
system.tol2bus.snoop_fanout::14                     0      0.00%    100.00% # Request fanout histogram
system.tol2bus.snoop_fanout::15                     0      0.00%    100.00% # Request fanout histogram
system.tol2bus.snoop_fanout::16                     0      0.00%    100.00% # Request fanout histogram
system.tol2bus.snoop_fanout::17                     0      0.00%    100.00% # Request fanout histogram
system.tol2bus.snoop_fanout::18                     0      0.00%    100.00% # Request fanout histogram
system.tol2bus.snoop_fanout::19                     0      0.00%    100.00% # Request fanout histogram
system.tol2bus.snoop_fanout::20                     0      0.00%    100.00% # Request fanout histogram
system.tol2bus.snoop_fanout::21                     0      0.00%    100.00% # Request fanout histogram
system.tol2bus.snoop_fanout::22                     0      0.00%    100.00% # Request fanout histogram
system.tol2bus.snoop_fanout::23                     0      0.00%    100.00% # Request fanout histogram
system.tol2bus.snoop_fanout::24                     0      0.00%    100.00% # Request fanout histogram
system.tol2bus.snoop_fanout::overflows              0      0.00%    100.00% # Request fanout histogram
system.tol2bus.snoop_fanout::min_value              0                       # Request fanout histogram
system.tol2bus.snoop_fanout::max_value              1                       # Request fanout histogram
system.tol2bus.snoop_fanout::total            1203055                       # Request fanout histogram
system.tol2bus.reqLayer0.occupancy         2381412500                       # Layer occupancy (ticks)
system.tol2bus.reqLayer0.utilization             15.6                       # Layer utilization (%)
system.tol2bus.respLayer0.occupancy             63000                       # Layer occupancy (ticks)
system.tol2bus.respLayer0.utilization             0.0                       # Layer utilization (%)
system.tol2bus.respLayer1.occupancy        1800384000                       # Layer occupancy (ticks)
system.tol2bus.respLayer1.utilization            11.8                       # Layer utilization (%)

---------- End Simulation Statistics   ----------
