
---------- Begin Simulation Statistics ----------
sim_seconds                                  0.015267                       # Number of seconds simulated
sim_ticks                                 15267344125                       # Number of ticks simulated
final_tick                               167940785375                       # Number of ticks from beginning of simulation (restored from checkpoints and never reset)
sim_freq                                 1000000000000                       # Frequency of simulated ticks
host_inst_rate                                1409296                       # Simulator instruction rate (inst/s)
host_op_rate                                  2650286                       # Simulator op (including micro ops) rate (op/s)
host_tick_rate                               57243970                       # Simulator tick rate (ticks/s)
host_mem_usage                                3394652                       # Number of bytes of host memory used
host_seconds                                   266.71                       # Real time elapsed on the host
sim_insts                                   375868413                       # Number of instructions simulated
sim_ops                                     706848768                       # Number of ops (including micro ops) simulated
system.voltage_domain.voltage                       1                       # Voltage in Volts
system.clk_domain.clock                          1000                       # Clock period in ticks
system.mem_ctrls.pwrStateResidencyTicks::UNDEFINED  15267344125                       # Cumulative time (in ticks) in various power states
system.mem_ctrls.bytes_read::cpu0.data         217280                       # Number of bytes read from this memory
system.mem_ctrls.bytes_read::total             217280                       # Number of bytes read from this memory
system.mem_ctrls.num_reads::cpu0.data            3395                       # Number of read requests responded to by this memory
system.mem_ctrls.num_reads::total                3395                       # Number of read requests responded to by this memory
system.mem_ctrls.bw_read::cpu0.data          14231683                       # Total read bandwidth from this memory (bytes/s)
system.mem_ctrls.bw_read::total              14231683                       # Total read bandwidth from this memory (bytes/s)
system.mem_ctrls.bw_total::cpu0.data         14231683                       # Total bandwidth to/from this memory (bytes/s)
system.mem_ctrls.bw_total::total             14231683                       # Total bandwidth to/from this memory (bytes/s)
system.mem_ctrls.readReqs                        3395                       # Number of read requests accepted
system.mem_ctrls.writeReqs                          0                       # Number of write requests accepted
system.mem_ctrls.readBursts                      3395                       # Number of DRAM read bursts, including those serviced by the write queue
system.mem_ctrls.writeBursts                        0                       # Number of DRAM write bursts, including those merged in the write queue
system.mem_ctrls.bytesReadDRAM                 217280                       # Total number of bytes read from DRAM
system.mem_ctrls.bytesReadWrQ                       0                       # Total number of bytes read from write queue
system.mem_ctrls.bytesWritten                       0                       # Total number of bytes written to DRAM
system.mem_ctrls.bytesReadSys                  217280                       # Total read bytes from the system interface side
system.mem_ctrls.bytesWrittenSys                    0                       # Total written bytes from the system interface side
system.mem_ctrls.servicedByWrQ                      0                       # Number of DRAM read bursts serviced by the write queue
system.mem_ctrls.mergedWrBursts                     0                       # Number of DRAM write bursts merged with an existing one
system.mem_ctrls.neitherReadNorWriteReqs            0                       # Number of requests that are neither read nor write
system.mem_ctrls.perBankRdBursts::0               256                       # Per bank write bursts
system.mem_ctrls.perBankRdBursts::1               256                       # Per bank write bursts
system.mem_ctrls.perBankRdBursts::2               256                       # Per bank write bursts
system.mem_ctrls.perBankRdBursts::3               256                       # Per bank write bursts
system.mem_ctrls.perBankRdBursts::4               353                       # Per bank write bursts
system.mem_ctrls.perBankRdBursts::5               384                       # Per bank write bursts
system.mem_ctrls.perBankRdBursts::6               294                       # Per bank write bursts
system.mem_ctrls.perBankRdBursts::7               182                       # Per bank write bursts
system.mem_ctrls.perBankRdBursts::8               128                       # Per bank write bursts
system.mem_ctrls.perBankRdBursts::9               128                       # Per bank write bursts
system.mem_ctrls.perBankRdBursts::10              128                       # Per bank write bursts
system.mem_ctrls.perBankRdBursts::11              128                       # Per bank write bursts
system.mem_ctrls.perBankRdBursts::12              128                       # Per bank write bursts
system.mem_ctrls.perBankRdBursts::13              128                       # Per bank write bursts
system.mem_ctrls.perBankRdBursts::14              134                       # Per bank write bursts
system.mem_ctrls.perBankRdBursts::15              256                       # Per bank write bursts
system.mem_ctrls.perBankWrBursts::0                 0                       # Per bank write bursts
system.mem_ctrls.perBankWrBursts::1                 0                       # Per bank write bursts
system.mem_ctrls.perBankWrBursts::2                 0                       # Per bank write bursts
system.mem_ctrls.perBankWrBursts::3                 0                       # Per bank write bursts
system.mem_ctrls.perBankWrBursts::4                 0                       # Per bank write bursts
system.mem_ctrls.perBankWrBursts::5                 0                       # Per bank write bursts
system.mem_ctrls.perBankWrBursts::6                 0                       # Per bank write bursts
system.mem_ctrls.perBankWrBursts::7                 0                       # Per bank write bursts
system.mem_ctrls.perBankWrBursts::8                 0                       # Per bank write bursts
system.mem_ctrls.perBankWrBursts::9                 0                       # Per bank write bursts
system.mem_ctrls.perBankWrBursts::10                0                       # Per bank write bursts
system.mem_ctrls.perBankWrBursts::11                0                       # Per bank write bursts
system.mem_ctrls.perBankWrBursts::12                0                       # Per bank write bursts
system.mem_ctrls.perBankWrBursts::13                0                       # Per bank write bursts
system.mem_ctrls.perBankWrBursts::14                0                       # Per bank write bursts
system.mem_ctrls.perBankWrBursts::15                0                       # Per bank write bursts
system.mem_ctrls.numRdRetry                         0                       # Number of times read queue was full causing retry
system.mem_ctrls.numWrRetry                         0                       # Number of times write queue was full causing retry
system.mem_ctrls.totGap                   15273571000                       # Total gap between requests
system.mem_ctrls.readPktSize::0                     0                       # Read request sizes (log2)
system.mem_ctrls.readPktSize::1                     0                       # Read request sizes (log2)
system.mem_ctrls.readPktSize::2                     0                       # Read request sizes (log2)
system.mem_ctrls.readPktSize::3                     0                       # Read request sizes (log2)
system.mem_ctrls.readPktSize::4                     0                       # Read request sizes (log2)
system.mem_ctrls.readPktSize::5                     0                       # Read request sizes (log2)
system.mem_ctrls.readPktSize::6                  3395                       # Read request sizes (log2)
system.mem_ctrls.writePktSize::0                    0                       # Write request sizes (log2)
system.mem_ctrls.writePktSize::1                    0                       # Write request sizes (log2)
system.mem_ctrls.writePktSize::2                    0                       # Write request sizes (log2)
system.mem_ctrls.writePktSize::3                    0                       # Write request sizes (log2)
system.mem_ctrls.writePktSize::4                    0                       # Write request sizes (log2)
system.mem_ctrls.writePktSize::5                    0                       # Write request sizes (log2)
system.mem_ctrls.writePktSize::6                    0                       # Write request sizes (log2)
system.mem_ctrls.rdQLenPdf::0                    3394                       # What read queue length does an incoming req see
system.mem_ctrls.rdQLenPdf::1                       1                       # What read queue length does an incoming req see
system.mem_ctrls.rdQLenPdf::2                       0                       # What read queue length does an incoming req see
system.mem_ctrls.rdQLenPdf::3                       0                       # What read queue length does an incoming req see
system.mem_ctrls.rdQLenPdf::4                       0                       # What read queue length does an incoming req see
system.mem_ctrls.rdQLenPdf::5                       0                       # What read queue length does an incoming req see
system.mem_ctrls.rdQLenPdf::6                       0                       # What read queue length does an incoming req see
system.mem_ctrls.rdQLenPdf::7                       0                       # What read queue length does an incoming req see
system.mem_ctrls.rdQLenPdf::8                       0                       # What read queue length does an incoming req see
system.mem_ctrls.rdQLenPdf::9                       0                       # What read queue length does an incoming req see
system.mem_ctrls.rdQLenPdf::10                      0                       # What read queue length does an incoming req see
system.mem_ctrls.rdQLenPdf::11                      0                       # What read queue length does an incoming req see
system.mem_ctrls.rdQLenPdf::12                      0                       # What read queue length does an incoming req see
system.mem_ctrls.rdQLenPdf::13                      0                       # What read queue length does an incoming req see
system.mem_ctrls.rdQLenPdf::14                      0                       # What read queue length does an incoming req see
system.mem_ctrls.rdQLenPdf::15                      0                       # What read queue length does an incoming req see
system.mem_ctrls.rdQLenPdf::16                      0                       # What read queue length does an incoming req see
system.mem_ctrls.rdQLenPdf::17                      0                       # What read queue length does an incoming req see
system.mem_ctrls.rdQLenPdf::18                      0                       # What read queue length does an incoming req see
system.mem_ctrls.rdQLenPdf::19                      0                       # What read queue length does an incoming req see
system.mem_ctrls.rdQLenPdf::20                      0                       # What read queue length does an incoming req see
system.mem_ctrls.rdQLenPdf::21                      0                       # What read queue length does an incoming req see
system.mem_ctrls.rdQLenPdf::22                      0                       # What read queue length does an incoming req see
system.mem_ctrls.rdQLenPdf::23                      0                       # What read queue length does an incoming req see
system.mem_ctrls.rdQLenPdf::24                      0                       # What read queue length does an incoming req see
system.mem_ctrls.rdQLenPdf::25                      0                       # What read queue length does an incoming req see
system.mem_ctrls.rdQLenPdf::26                      0                       # What read queue length does an incoming req see
system.mem_ctrls.rdQLenPdf::27                      0                       # What read queue length does an incoming req see
system.mem_ctrls.rdQLenPdf::28                      0                       # What read queue length does an incoming req see
system.mem_ctrls.rdQLenPdf::29                      0                       # What read queue length does an incoming req see
system.mem_ctrls.rdQLenPdf::30                      0                       # What read queue length does an incoming req see
system.mem_ctrls.rdQLenPdf::31                      0                       # What read queue length does an incoming req see
system.mem_ctrls.wrQLenPdf::0                       0                       # What write queue length does an incoming req see
system.mem_ctrls.wrQLenPdf::1                       0                       # What write queue length does an incoming req see
system.mem_ctrls.wrQLenPdf::2                       0                       # What write queue length does an incoming req see
system.mem_ctrls.wrQLenPdf::3                       0                       # What write queue length does an incoming req see
system.mem_ctrls.wrQLenPdf::4                       0                       # What write queue length does an incoming req see
system.mem_ctrls.wrQLenPdf::5                       0                       # What write queue length does an incoming req see
system.mem_ctrls.wrQLenPdf::6                       0                       # What write queue length does an incoming req see
system.mem_ctrls.wrQLenPdf::7                       0                       # What write queue length does an incoming req see
system.mem_ctrls.wrQLenPdf::8                       0                       # What write queue length does an incoming req see
system.mem_ctrls.wrQLenPdf::9                       0                       # What write queue length does an incoming req see
system.mem_ctrls.wrQLenPdf::10                      0                       # What write queue length does an incoming req see
system.mem_ctrls.wrQLenPdf::11                      0                       # What write queue length does an incoming req see
system.mem_ctrls.wrQLenPdf::12                      0                       # What write queue length does an incoming req see
system.mem_ctrls.wrQLenPdf::13                      0                       # What write queue length does an incoming req see
system.mem_ctrls.wrQLenPdf::14                      0                       # What write queue length does an incoming req see
system.mem_ctrls.wrQLenPdf::15                      0                       # What write queue length does an incoming req see
system.mem_ctrls.wrQLenPdf::16                      0                       # What write queue length does an incoming req see
system.mem_ctrls.wrQLenPdf::17                      0                       # What write queue length does an incoming req see
system.mem_ctrls.wrQLenPdf::18                      0                       # What write queue length does an incoming req see
system.mem_ctrls.wrQLenPdf::19                      0                       # What write queue length does an incoming req see
system.mem_ctrls.wrQLenPdf::20                      0                       # What write queue length does an incoming req see
system.mem_ctrls.wrQLenPdf::21                      0                       # What write queue length does an incoming req see
system.mem_ctrls.wrQLenPdf::22                      0                       # What write queue length does an incoming req see
system.mem_ctrls.wrQLenPdf::23                      0                       # What write queue length does an incoming req see
system.mem_ctrls.wrQLenPdf::24                      0                       # What write queue length does an incoming req see
system.mem_ctrls.wrQLenPdf::25                      0                       # What write queue length does an incoming req see
system.mem_ctrls.wrQLenPdf::26                      0                       # What write queue length does an incoming req see
system.mem_ctrls.wrQLenPdf::27                      0                       # What write queue length does an incoming req see
system.mem_ctrls.wrQLenPdf::28                      0                       # What write queue length does an incoming req see
system.mem_ctrls.wrQLenPdf::29                      0                       # What write queue length does an incoming req see
system.mem_ctrls.wrQLenPdf::30                      0                       # What write queue length does an incoming req see
system.mem_ctrls.wrQLenPdf::31                      0                       # What write queue length does an incoming req see
system.mem_ctrls.wrQLenPdf::32                      0                       # What write queue length does an incoming req see
system.mem_ctrls.wrQLenPdf::33                      0                       # What write queue length does an incoming req see
system.mem_ctrls.wrQLenPdf::34                      0                       # What write queue length does an incoming req see
system.mem_ctrls.wrQLenPdf::35                      0                       # What write queue length does an incoming req see
system.mem_ctrls.wrQLenPdf::36                      0                       # What write queue length does an incoming req see
system.mem_ctrls.wrQLenPdf::37                      0                       # What write queue length does an incoming req see
system.mem_ctrls.wrQLenPdf::38                      0                       # What write queue length does an incoming req see
system.mem_ctrls.wrQLenPdf::39                      0                       # What write queue length does an incoming req see
system.mem_ctrls.wrQLenPdf::40                      0                       # What write queue length does an incoming req see
system.mem_ctrls.wrQLenPdf::41                      0                       # What write queue length does an incoming req see
system.mem_ctrls.wrQLenPdf::42                      0                       # What write queue length does an incoming req see
system.mem_ctrls.wrQLenPdf::43                      0                       # What write queue length does an incoming req see
system.mem_ctrls.wrQLenPdf::44                      0                       # What write queue length does an incoming req see
system.mem_ctrls.wrQLenPdf::45                      0                       # What write queue length does an incoming req see
system.mem_ctrls.wrQLenPdf::46                      0                       # What write queue length does an incoming req see
system.mem_ctrls.wrQLenPdf::47                      0                       # What write queue length does an incoming req see
system.mem_ctrls.wrQLenPdf::48                      0                       # What write queue length does an incoming req see
system.mem_ctrls.wrQLenPdf::49                      0                       # What write queue length does an incoming req see
system.mem_ctrls.wrQLenPdf::50                      0                       # What write queue length does an incoming req see
system.mem_ctrls.wrQLenPdf::51                      0                       # What write queue length does an incoming req see
system.mem_ctrls.wrQLenPdf::52                      0                       # What write queue length does an incoming req see
system.mem_ctrls.wrQLenPdf::53                      0                       # What write queue length does an incoming req see
system.mem_ctrls.wrQLenPdf::54                      0                       # What write queue length does an incoming req see
system.mem_ctrls.wrQLenPdf::55                      0                       # What write queue length does an incoming req see
system.mem_ctrls.wrQLenPdf::56                      0                       # What write queue length does an incoming req see
system.mem_ctrls.wrQLenPdf::57                      0                       # What write queue length does an incoming req see
system.mem_ctrls.wrQLenPdf::58                      0                       # What write queue length does an incoming req see
system.mem_ctrls.wrQLenPdf::59                      0                       # What write queue length does an incoming req see
system.mem_ctrls.wrQLenPdf::60                      0                       # What write queue length does an incoming req see
system.mem_ctrls.wrQLenPdf::61                      0                       # What write queue length does an incoming req see
system.mem_ctrls.wrQLenPdf::62                      0                       # What write queue length does an incoming req see
system.mem_ctrls.wrQLenPdf::63                      0                       # What write queue length does an incoming req see
system.mem_ctrls.bytesPerActivate::samples         3313                       # Bytes accessed per row activation
system.mem_ctrls.bytesPerActivate::mean     65.545427                       # Bytes accessed per row activation
system.mem_ctrls.bytesPerActivate::gmean    65.074572                       # Bytes accessed per row activation
system.mem_ctrls.bytesPerActivate::stdev     9.950958                       # Bytes accessed per row activation
system.mem_ctrls.bytesPerActivate::64-79         3234     97.62%     97.62% # Bytes accessed per row activation
system.mem_ctrls.bytesPerActivate::128-143           78      2.35%     99.97% # Bytes accessed per row activation
system.mem_ctrls.bytesPerActivate::192-207            1      0.03%    100.00% # Bytes accessed per row activation
system.mem_ctrls.bytesPerActivate::total         3313                       # Bytes accessed per row activation
system.mem_ctrls.totQLat                    280316500                       # Total ticks spent queuing
system.mem_ctrls.totMemAccLat               343972750                       # Total ticks spent from burst creation until serviced by the DRAM
system.mem_ctrls.totBusLat                   16975000                       # Total ticks spent in databus transfers
system.mem_ctrls.avgQLat                     82567.45                       # Average queueing delay per DRAM burst
system.mem_ctrls.avgBusLat                    5000.00                       # Average bus latency per DRAM burst
system.mem_ctrls.avgMemAccLat               101317.45                       # Average memory access latency per DRAM burst
system.mem_ctrls.avgRdBW                        14.23                       # Average DRAM read bandwidth in MiByte/s
system.mem_ctrls.avgWrBW                         0.00                       # Average achieved write bandwidth in MiByte/s
system.mem_ctrls.avgRdBWSys                     14.23                       # Average system read bandwidth in MiByte/s
system.mem_ctrls.avgWrBWSys                      0.00                       # Average system write bandwidth in MiByte/s
system.mem_ctrls.peakBW                      12800.00                       # Theoretical peak bandwidth in MiByte/s
system.mem_ctrls.busUtil                         0.11                       # Data bus utilization in percentage
system.mem_ctrls.busUtilRead                     0.11                       # Data bus utilization in percentage for reads
system.mem_ctrls.busUtilWrite                    0.00                       # Data bus utilization in percentage for writes
system.mem_ctrls.avgRdQLen                       1.00                       # Average read queue length when enqueuing
system.mem_ctrls.avgWrQLen                       0.00                       # Average write queue length when enqueuing
system.mem_ctrls.readRowHits                       80                       # Number of row buffer hits during reads
system.mem_ctrls.writeRowHits                       0                       # Number of row buffer hits during writes
system.mem_ctrls.readRowHitRate                  2.36                       # Row buffer hit rate for reads
system.mem_ctrls.writeRowHitRate                  nan                       # Row buffer hit rate for writes
system.mem_ctrls.avgGap                    4498842.71                       # Average gap between requests
system.mem_ctrls.pageHitRate                     2.36                       # Row buffer hit rate, read and write combined
system.mem_ctrls_0.actEnergy                 15772260                       # Energy for activate commands per rank (pJ)
system.mem_ctrls_0.preEnergy                  8375565                       # Energy for precharge commands per rank (pJ)
system.mem_ctrls_0.readEnergy                15972180                       # Energy for read commands per rank (pJ)
system.mem_ctrls_0.writeEnergy                      0                       # Energy for write commands per rank (pJ)
system.mem_ctrls_0.refreshEnergy         1299963600.000000                       # Energy for refresh commands per rank (pJ)
system.mem_ctrls_0.actBackEnergy            276855270                       # Energy for active background per rank (pJ)
system.mem_ctrls_0.preBackEnergy             53424960                       # Energy for precharge background per rank (pJ)
system.mem_ctrls_0.actPowerDownEnergy      3223843050                       # Energy for active power-down per rank (pJ)
system.mem_ctrls_0.prePowerDownEnergy      2424479520                       # Energy for precharge power-down per rank (pJ)
system.mem_ctrls_0.selfRefreshEnergy        450820980                       # Energy for self refresh per rank (pJ)
system.mem_ctrls_0.totalEnergy             7772019795                       # Total energy per rank (pJ)
system.mem_ctrls_0.averagePower            509.061676                       # Core power per rank (mW)
system.mem_ctrls_0.totalIdleTime          14515240500                       # Total Idle time Per DRAM Rank
system.mem_ctrls_0.memoryStateTime::IDLE     93660000                       # Time in different power states
system.mem_ctrls_0.memoryStateTime::REF     552006000                       # Time in different power states
system.mem_ctrls_0.memoryStateTime::SREF   1131902000                       # Time in different power states
system.mem_ctrls_0.memoryStateTime::PRE_PDN   6313763250                       # Time in different power states
system.mem_ctrls_0.memoryStateTime::ACT     106010750                       # Time in different power states
system.mem_ctrls_0.memoryStateTime::ACT_PDN   7070002125                       # Time in different power states
system.mem_ctrls_1.actEnergy                  7896840                       # Energy for activate commands per rank (pJ)
system.mem_ctrls_1.preEnergy                  4197270                       # Energy for precharge commands per rank (pJ)
system.mem_ctrls_1.readEnergy                 8268120                       # Energy for read commands per rank (pJ)
system.mem_ctrls_1.writeEnergy                      0                       # Energy for write commands per rank (pJ)
system.mem_ctrls_1.refreshEnergy         713597040.000000                       # Energy for refresh commands per rank (pJ)
system.mem_ctrls_1.actBackEnergy            150279930                       # Energy for active background per rank (pJ)
system.mem_ctrls_1.preBackEnergy             19268160                       # Energy for precharge background per rank (pJ)
system.mem_ctrls_1.actPowerDownEnergy      1912817400                       # Energy for active power-down per rank (pJ)
system.mem_ctrls_1.prePowerDownEnergy      1543906080                       # Energy for precharge power-down per rank (pJ)
system.mem_ctrls_1.selfRefreshEnergy       1635557880                       # Energy for self refresh per rank (pJ)
system.mem_ctrls_1.totalEnergy             5996893530                       # Total energy per rank (pJ)
system.mem_ctrls_1.averagePower            392.792190                       # Core power per rank (mW)
system.mem_ctrls_1.totalIdleTime           8279678250                       # Total Idle time Per DRAM Rank
system.mem_ctrls_1.memoryStateTime::IDLE     22200000                       # Time in different power states
system.mem_ctrls_1.memoryStateTime::REF     302457750                       # Time in different power states
system.mem_ctrls_1.memoryStateTime::SREF   6669693125                       # Time in different power states
system.mem_ctrls_1.memoryStateTime::PRE_PDN   4020495500                       # Time in different power states
system.mem_ctrls_1.memoryStateTime::ACT      57765750                       # Time in different power states
system.mem_ctrls_1.memoryStateTime::ACT_PDN   4194732000                       # Time in different power states
system.pwrStateResidencyTicks::UNDEFINED  15267344125                       # Cumulative time (in ticks) in various power states
system.cpu0.branchPred.lookups               12814550                       # Number of BP lookups
system.cpu0.branchPred.condPredicted         12814550                       # Number of conditional branches predicted
system.cpu0.branchPred.condIncorrect          1011989                       # Number of conditional branches incorrect
system.cpu0.branchPred.BTBLookups            10649106                       # Number of BTB lookups
system.cpu0.branchPred.BTBHits                      0                       # Number of BTB hits
system.cpu0.branchPred.BTBCorrect                   0                       # Number of correct BTB predictions (this stat may not work properly.
system.cpu0.branchPred.BTBHitPct             0.000000                       # BTB Hit Percentage
system.cpu0.branchPred.usedRAS                 953480                       # Number of times the RAS was used to get a target.
system.cpu0.branchPred.RASInCorrect            203839                       # Number of incorrect RAS predictions.
system.cpu0.branchPred.indirectLookups       10649106                       # Number of indirect predictor lookups.
system.cpu0.branchPred.indirectHits           3667453                       # Number of indirect target hits.
system.cpu0.branchPred.indirectMisses         6981653                       # Number of indirect misses.
system.cpu0.branchPredindirectMispredicted       710841                       # Number of mispredicted indirect branches.
system.cpu_voltage_domain.voltage                   1                       # Voltage in Volts
system.cpu_clk_domain.clock                       500                       # Clock period in ticks
system.cpu0.dtb.walker.pwrStateResidencyTicks::UNDEFINED  15267344125                       # Cumulative time (in ticks) in various power states
system.cpu0.dtb.rdAccesses                    9805075                       # TLB accesses on read requests
system.cpu0.dtb.wrAccesses                    7472060                       # TLB accesses on write requests
system.cpu0.dtb.rdMisses                       122730                       # TLB misses on read requests
system.cpu0.dtb.wrMisses                        38864                       # TLB misses on write requests
system.cpu0.apic_clk_domain.clock                8000                       # Clock period in ticks
system.cpu0.interrupts.pwrStateResidencyTicks::UNDEFINED  15267344125                       # Cumulative time (in ticks) in various power states
system.cpu0.itb.walker.pwrStateResidencyTicks::UNDEFINED  15267344125                       # Cumulative time (in ticks) in various power states
system.cpu0.itb.rdAccesses                          0                       # TLB accesses on read requests
system.cpu0.itb.wrAccesses                    8775631                       # TLB accesses on write requests
system.cpu0.itb.rdMisses                            0                       # TLB misses on read requests
system.cpu0.itb.wrMisses                        11332                       # TLB misses on write requests
system.cpu0.workload.numSyscalls                   24                       # Number of system calls
system.cpu0.pwrStateResidencyTicks::ON    15267344125                       # Cumulative time (in ticks) in various power states
system.cpu0.numCycles                        30534688                       # number of cpu cycles simulated
system.cpu0.numWorkItemsStarted                     0                       # number of work items this cpu started
system.cpu0.numWorkItemsCompleted                   0                       # number of work items this cpu completed
system.cpu0.fetch.icacheStallCycles          10441526                       # Number of cycles fetch is stalled on an Icache miss
system.cpu0.fetch.Insts                      57690023                       # Number of instructions fetch has processed
system.cpu0.fetch.Branches                   12814550                       # Number of branches that fetch encountered
system.cpu0.fetch.predictedBranches           4620933                       # Number of branches that fetch has predicted taken
system.cpu0.fetch.Cycles                     18974104                       # Number of cycles fetch has run and was not squashing or blocked
system.cpu0.fetch.SquashCycles                2036288                       # Number of cycles fetch has spent squashing
system.cpu0.fetch.TlbCycles                         1                       # Number of cycles fetch has spent waiting for tlb
system.cpu0.fetch.MiscStallCycles                6809                       # Number of cycles fetch has spent waiting on interrupts, or bad addresses, or out of MSHRs
system.cpu0.fetch.PendingTrapStallCycles        49482                       # Number of stall cycles due to pending traps
system.cpu0.fetch.CacheLines                  8764299                       # Number of cache lines fetched
system.cpu0.fetch.IcacheSquashes               270087                       # Number of outstanding Icache misses that were squashed
system.cpu0.fetch.rateDist::samples          30490066                       # Number of instructions fetched each cycle (Total)
system.cpu0.fetch.rateDist::mean             3.621837                       # Number of instructions fetched each cycle (Total)
system.cpu0.fetch.rateDist::stdev            3.573047                       # Number of instructions fetched each cycle (Total)
system.cpu0.fetch.rateDist::underflows              0      0.00%      0.00% # Number of instructions fetched each cycle (Total)
system.cpu0.fetch.rateDist::0                12827677     42.07%     42.07% # Number of instructions fetched each cycle (Total)
system.cpu0.fetch.rateDist::1                  830989      2.73%     44.80% # Number of instructions fetched each cycle (Total)
system.cpu0.fetch.rateDist::2                 1240716      4.07%     48.87% # Number of instructions fetched each cycle (Total)
system.cpu0.fetch.rateDist::3                 1387915      4.55%     53.42% # Number of instructions fetched each cycle (Total)
system.cpu0.fetch.rateDist::4                 1103797      3.62%     57.04% # Number of instructions fetched each cycle (Total)
system.cpu0.fetch.rateDist::5                 1117729      3.67%     60.70% # Number of instructions fetched each cycle (Total)
system.cpu0.fetch.rateDist::6                 1012871      3.32%     64.03% # Number of instructions fetched each cycle (Total)
system.cpu0.fetch.rateDist::7                  874137      2.87%     66.89% # Number of instructions fetched each cycle (Total)
system.cpu0.fetch.rateDist::8                10094235     33.11%    100.00% # Number of instructions fetched each cycle (Total)
system.cpu0.fetch.rateDist::overflows               0      0.00%    100.00% # Number of instructions fetched each cycle (Total)
system.cpu0.fetch.rateDist::min_value               0                       # Number of instructions fetched each cycle (Total)
system.cpu0.fetch.rateDist::max_value               8                       # Number of instructions fetched each cycle (Total)
system.cpu0.fetch.rateDist::total            30490066                       # Number of instructions fetched each cycle (Total)
system.cpu0.fetch.branchRate                 0.419672                       # Number of branch fetches per cycle
system.cpu0.fetch.rate                       1.889327                       # Number of inst fetches per cycle
system.cpu0.decode.IdleCycles                 9399747                       # Number of cycles decode is idle
system.cpu0.decode.BlockedCycles              3845996                       # Number of cycles decode is blocked
system.cpu0.decode.RunCycles                 15342207                       # Number of cycles decode is running
system.cpu0.decode.UnblockCycles               883972                       # Number of cycles decode is unblocking
system.cpu0.decode.SquashCycles               1018144                       # Number of cycles decode is squashing
system.cpu0.decode.DecodedInsts             105446366                       # Number of instructions handled by decode
system.cpu0.rename.SquashCycles               1018144                       # Number of cycles rename is squashing
system.cpu0.rename.IdleCycles                10106489                       # Number of cycles rename is idle
system.cpu0.rename.BlockCycles                2967650                       # Number of cycles rename is blocking
system.cpu0.rename.serializeStallCycles         25745                       # count of cycles rename stalled for serializing inst
system.cpu0.rename.RunCycles                 15459748                       # Number of cycles rename is running
system.cpu0.rename.UnblockCycles               912290                       # Number of cycles rename is unblocking
system.cpu0.rename.RenamedInsts             100833191                       # Number of instructions processed by rename
system.cpu0.rename.ROBFullEvents                  922                       # Number of times rename has blocked due to ROB full
system.cpu0.rename.IQFullEvents                 69656                       # Number of times rename has blocked due to IQ full
system.cpu0.rename.LQFullEvents                    77                       # Number of times rename has blocked due to LQ full
system.cpu0.rename.SQFullEvents                785916                       # Number of times rename has blocked due to SQ full
system.cpu0.rename.RenamedOperands          107336726                       # Number of destination operands rename has renamed
system.cpu0.rename.RenameLookups            254283281                       # Number of register rename lookups that rename has made
system.cpu0.rename.int_rename_lookups       151699681                       # Number of integer rename lookups
system.cpu0.rename.fp_rename_lookups          3069424                       # Number of floating rename lookups
system.cpu0.rename.CommittedMaps             69131837                       # Number of HB maps that are committed
system.cpu0.rename.UndoneMaps                38204879                       # Number of HB maps that are undone due to squashing
system.cpu0.rename.serializingInsts               811                       # count of serializing insts renamed
system.cpu0.rename.tempSerializingInsts          1104                       # count of temporary serializing insts renamed
system.cpu0.rename.skidInsts                   918638                       # count of insts added to the skid buffer
system.cpu0.memDep0.insertedLoads            11550361                       # Number of loads inserted to the mem dependence unit.
system.cpu0.memDep0.insertedStores            8759667                       # Number of stores inserted to the mem dependence unit.
system.cpu0.memDep0.conflictingLoads           486196                       # Number of conflicting loads.
system.cpu0.memDep0.conflictingStores          196724                       # Number of conflicting stores.
system.cpu0.iq.iqInstsAdded                  91371379                       # Number of instructions added to the IQ (excludes non-spec)
system.cpu0.iq.iqNonSpecInstsAdded              61477                       # Number of non-speculative instructions added to the IQ
system.cpu0.iq.iqInstsIssued                 82137456                       # Number of instructions issued
system.cpu0.iq.iqSquashedInstsIssued           404471                       # Number of squashed instructions issued
system.cpu0.iq.iqSquashedInstsExamined       26739506                       # Number of squashed instructions iterated over during squash; mainly for profiling
system.cpu0.iq.iqSquashedOperandsExamined     38892145                       # Number of squashed operands that are examined and possibly removed from graph
system.cpu0.iq.iqSquashedNonSpecRemoved         61453                       # Number of squashed non-spec instructions that were removed
system.cpu0.iq.issued_per_cycle::samples     30490066                       # Number of insts issued each cycle
system.cpu0.iq.issued_per_cycle::mean        2.693909                       # Number of insts issued each cycle
system.cpu0.iq.issued_per_cycle::stdev       2.497391                       # Number of insts issued each cycle
system.cpu0.iq.issued_per_cycle::underflows            0      0.00%      0.00% # Number of insts issued each cycle
system.cpu0.iq.issued_per_cycle::0            9727541     31.90%     31.90% # Number of insts issued each cycle
system.cpu0.iq.issued_per_cycle::1            2916617      9.57%     41.47% # Number of insts issued each cycle
system.cpu0.iq.issued_per_cycle::2            3193655     10.47%     51.94% # Number of insts issued each cycle
system.cpu0.iq.issued_per_cycle::3            3170499     10.40%     62.34% # Number of insts issued each cycle
system.cpu0.iq.issued_per_cycle::4            3141279     10.30%     72.65% # Number of insts issued each cycle
system.cpu0.iq.issued_per_cycle::5            2751937      9.03%     81.67% # Number of insts issued each cycle
system.cpu0.iq.issued_per_cycle::6            3075631     10.09%     91.76% # Number of insts issued each cycle
system.cpu0.iq.issued_per_cycle::7            1559811      5.12%     96.87% # Number of insts issued each cycle
system.cpu0.iq.issued_per_cycle::8             953096      3.13%    100.00% # Number of insts issued each cycle
system.cpu0.iq.issued_per_cycle::overflows            0      0.00%    100.00% # Number of insts issued each cycle
system.cpu0.iq.issued_per_cycle::min_value            0                       # Number of insts issued each cycle
system.cpu0.iq.issued_per_cycle::max_value            8                       # Number of insts issued each cycle
system.cpu0.iq.issued_per_cycle::total       30490066                       # Number of insts issued each cycle
system.cpu0.iq.fu_full::No_OpClass                  0      0.00%      0.00% # attempts to use FU when none available
system.cpu0.iq.fu_full::IntAlu                 749139     72.25%     72.25% # attempts to use FU when none available
system.cpu0.iq.fu_full::IntMult                     0      0.00%     72.25% # attempts to use FU when none available
system.cpu0.iq.fu_full::IntDiv                      0      0.00%     72.25% # attempts to use FU when none available
system.cpu0.iq.fu_full::FloatAdd                14831      1.43%     73.68% # attempts to use FU when none available
system.cpu0.iq.fu_full::FloatCmp                    0      0.00%     73.68% # attempts to use FU when none available
system.cpu0.iq.fu_full::FloatCvt                    0      0.00%     73.68% # attempts to use FU when none available
system.cpu0.iq.fu_full::FloatMult                   0      0.00%     73.68% # attempts to use FU when none available
system.cpu0.iq.fu_full::FloatMultAcc                0      0.00%     73.68% # attempts to use FU when none available
system.cpu0.iq.fu_full::FloatDiv                    0      0.00%     73.68% # attempts to use FU when none available
system.cpu0.iq.fu_full::FloatMisc                   0      0.00%     73.68% # attempts to use FU when none available
system.cpu0.iq.fu_full::FloatSqrt                   0      0.00%     73.68% # attempts to use FU when none available
system.cpu0.iq.fu_full::SimdAdd                     0      0.00%     73.68% # attempts to use FU when none available
system.cpu0.iq.fu_full::SimdAddAcc                  0      0.00%     73.68% # attempts to use FU when none available
system.cpu0.iq.fu_full::SimdAlu                     0      0.00%     73.68% # attempts to use FU when none available
system.cpu0.iq.fu_full::SimdCmp                     0      0.00%     73.68% # attempts to use FU when none available
system.cpu0.iq.fu_full::SimdCvt                     0      0.00%     73.68% # attempts to use FU when none available
system.cpu0.iq.fu_full::SimdMisc                    0      0.00%     73.68% # attempts to use FU when none available
system.cpu0.iq.fu_full::SimdMult                    0      0.00%     73.68% # attempts to use FU when none available
system.cpu0.iq.fu_full::SimdMultAcc                 0      0.00%     73.68% # attempts to use FU when none available
system.cpu0.iq.fu_full::SimdShift                   0      0.00%     73.68% # attempts to use FU when none available
system.cpu0.iq.fu_full::SimdShiftAcc                0      0.00%     73.68% # attempts to use FU when none available
system.cpu0.iq.fu_full::SimdSqrt                    0      0.00%     73.68% # attempts to use FU when none available
system.cpu0.iq.fu_full::SimdFloatAdd                0      0.00%     73.68% # attempts to use FU when none available
system.cpu0.iq.fu_full::SimdFloatAlu                0      0.00%     73.68% # attempts to use FU when none available
system.cpu0.iq.fu_full::SimdFloatCmp                0      0.00%     73.68% # attempts to use FU when none available
system.cpu0.iq.fu_full::SimdFloatCvt                0      0.00%     73.68% # attempts to use FU when none available
system.cpu0.iq.fu_full::SimdFloatDiv                0      0.00%     73.68% # attempts to use FU when none available
system.cpu0.iq.fu_full::SimdFloatMisc               0      0.00%     73.68% # attempts to use FU when none available
system.cpu0.iq.fu_full::SimdFloatMult               0      0.00%     73.68% # attempts to use FU when none available
system.cpu0.iq.fu_full::SimdFloatMultAcc            0      0.00%     73.68% # attempts to use FU when none available
system.cpu0.iq.fu_full::SimdFloatSqrt               0      0.00%     73.68% # attempts to use FU when none available
system.cpu0.iq.fu_full::MemRead                 95021      9.16%     82.84% # attempts to use FU when none available
system.cpu0.iq.fu_full::MemWrite                90458      8.72%     91.57% # attempts to use FU when none available
system.cpu0.iq.fu_full::FloatMemRead              670      0.06%     91.63% # attempts to use FU when none available
system.cpu0.iq.fu_full::FloatMemWrite           86769      8.37%    100.00% # attempts to use FU when none available
system.cpu0.iq.fu_full::IprAccess                   0      0.00%    100.00% # attempts to use FU when none available
system.cpu0.iq.fu_full::InstPrefetch                0      0.00%    100.00% # attempts to use FU when none available
system.cpu0.iq.FU_type_0::No_OpClass           480518      0.59%      0.59% # Type of FU issued
system.cpu0.iq.FU_type_0::IntAlu             62268523     75.81%     76.40% # Type of FU issued
system.cpu0.iq.FU_type_0::IntMult               75366      0.09%     76.49% # Type of FU issued
system.cpu0.iq.FU_type_0::IntDiv                87470      0.11%     76.59% # Type of FU issued
system.cpu0.iq.FU_type_0::FloatAdd            1148762      1.40%     77.99% # Type of FU issued
system.cpu0.iq.FU_type_0::FloatCmp                  0      0.00%     77.99% # Type of FU issued
system.cpu0.iq.FU_type_0::FloatCvt                  0      0.00%     77.99% # Type of FU issued
system.cpu0.iq.FU_type_0::FloatMult                 0      0.00%     77.99% # Type of FU issued
system.cpu0.iq.FU_type_0::FloatMultAcc              0      0.00%     77.99% # Type of FU issued
system.cpu0.iq.FU_type_0::FloatDiv                  0      0.00%     77.99% # Type of FU issued
system.cpu0.iq.FU_type_0::FloatMisc                 0      0.00%     77.99% # Type of FU issued
system.cpu0.iq.FU_type_0::FloatSqrt                 0      0.00%     77.99% # Type of FU issued
system.cpu0.iq.FU_type_0::SimdAdd                   0      0.00%     77.99% # Type of FU issued
system.cpu0.iq.FU_type_0::SimdAddAcc                0      0.00%     77.99% # Type of FU issued
system.cpu0.iq.FU_type_0::SimdAlu                   0      0.00%     77.99% # Type of FU issued
system.cpu0.iq.FU_type_0::SimdCmp                   0      0.00%     77.99% # Type of FU issued
system.cpu0.iq.FU_type_0::SimdCvt                   0      0.00%     77.99% # Type of FU issued
system.cpu0.iq.FU_type_0::SimdMisc                  0      0.00%     77.99% # Type of FU issued
system.cpu0.iq.FU_type_0::SimdMult                  0      0.00%     77.99% # Type of FU issued
system.cpu0.iq.FU_type_0::SimdMultAcc               0      0.00%     77.99% # Type of FU issued
system.cpu0.iq.FU_type_0::SimdShift                 0      0.00%     77.99% # Type of FU issued
system.cpu0.iq.FU_type_0::SimdShiftAcc              0      0.00%     77.99% # Type of FU issued
system.cpu0.iq.FU_type_0::SimdSqrt                  0      0.00%     77.99% # Type of FU issued
system.cpu0.iq.FU_type_0::SimdFloatAdd              0      0.00%     77.99% # Type of FU issued
system.cpu0.iq.FU_type_0::SimdFloatAlu              0      0.00%     77.99% # Type of FU issued
system.cpu0.iq.FU_type_0::SimdFloatCmp              0      0.00%     77.99% # Type of FU issued
system.cpu0.iq.FU_type_0::SimdFloatCvt              0      0.00%     77.99% # Type of FU issued
system.cpu0.iq.FU_type_0::SimdFloatDiv              0      0.00%     77.99% # Type of FU issued
system.cpu0.iq.FU_type_0::SimdFloatMisc             0      0.00%     77.99% # Type of FU issued
system.cpu0.iq.FU_type_0::SimdFloatMult             0      0.00%     77.99% # Type of FU issued
system.cpu0.iq.FU_type_0::SimdFloatMultAcc            0      0.00%     77.99% # Type of FU issued
system.cpu0.iq.FU_type_0::SimdFloatSqrt             0      0.00%     77.99% # Type of FU issued
system.cpu0.iq.FU_type_0::MemRead             9920883     12.08%     90.07% # Type of FU issued
system.cpu0.iq.FU_type_0::MemWrite            7498892      9.13%     99.20% # Type of FU issued
system.cpu0.iq.FU_type_0::FloatMemRead         378627      0.46%     99.66% # Type of FU issued
system.cpu0.iq.FU_type_0::FloatMemWrite        278415      0.34%    100.00% # Type of FU issued
system.cpu0.iq.FU_type_0::IprAccess                 0      0.00%    100.00% # Type of FU issued
system.cpu0.iq.FU_type_0::InstPrefetch              0      0.00%    100.00% # Type of FU issued
system.cpu0.iq.FU_type_0::total              82137456                       # Type of FU issued
system.cpu0.iq.rate                          2.689972                       # Inst issue rate
system.cpu0.iq.fu_busy_cnt                    1036888                       # FU busy when requested
system.cpu0.iq.fu_busy_rate                  0.012624                       # FU busy rate (busy events/executed inst)
system.cpu0.iq.int_inst_queue_reads         192338831                       # Number of integer instruction queue reads
system.cpu0.iq.int_inst_queue_writes        115200999                       # Number of integer instruction queue writes
system.cpu0.iq.int_inst_queue_wakeup_accesses     76988657                       # Number of integer instruction queue wakeup accesses
system.cpu0.iq.fp_inst_queue_reads            3867501                       # Number of floating instruction queue reads
system.cpu0.iq.fp_inst_queue_writes           2972348                       # Number of floating instruction queue writes
system.cpu0.iq.fp_inst_queue_wakeup_accesses      1753684                       # Number of floating instruction queue wakeup accesses
system.cpu0.iq.vec_inst_queue_reads                 0                       # Number of vector instruction queue reads
system.cpu0.iq.vec_inst_queue_writes                0                       # Number of vector instruction queue writes
system.cpu0.iq.vec_inst_queue_wakeup_accesses            0                       # Number of vector instruction queue wakeup accesses
system.cpu0.iq.int_alu_accesses              80741892                       # Number of integer alu accesses
system.cpu0.iq.fp_alu_accesses                1951934                       # Number of floating point alu accesses
system.cpu0.iq.vec_alu_accesses                     0                       # Number of vector alu accesses
system.cpu0.iew.lsq.thread0.forwLoads         1223031                       # Number of loads that had data forwarded from stores
system.cpu0.iew.lsq.thread0.invAddrLoads            0                       # Number of loads ignored due to an invalid address
system.cpu0.iew.lsq.thread0.squashedLoads      3806684                       # Number of loads squashed
system.cpu0.iew.lsq.thread0.ignoredResponses         8345                       # Number of memory responses ignored because the instruction is squashed
system.cpu0.iew.lsq.thread0.memOrderViolation         2344                       # Number of memory ordering violations
system.cpu0.iew.lsq.thread0.squashedStores      2410732                       # Number of stores squashed
system.cpu0.iew.lsq.thread0.invAddrSwpfs            0                       # Number of software prefetches ignored due to an invalid address
system.cpu0.iew.lsq.thread0.blockedLoads            0                       # Number of blocked loads due to partial load-store forwarding
system.cpu0.iew.lsq.thread0.rescheduledLoads          121                       # Number of loads that were rescheduled
system.cpu0.iew.lsq.thread0.cacheBlocked            0                       # Number of times an access to memory failed due to the cache being blocked
system.cpu0.iew.iewIdleCycles                       0                       # Number of cycles IEW is idle
system.cpu0.iew.iewSquashCycles               1018144                       # Number of cycles IEW is squashing
system.cpu0.iew.iewBlockCycles                3016038                       # Number of cycles IEW is blocking
system.cpu0.iew.iewUnblockCycles                 7632                       # Number of cycles IEW is unblocking
system.cpu0.iew.iewDispatchedInsts           91432856                       # Number of instructions dispatched to IQ
system.cpu0.iew.iewDispSquashedInsts            17677                       # Number of squashed instructions skipped by dispatch
system.cpu0.iew.iewDispLoadInsts             11550361                       # Number of dispatched load instructions
system.cpu0.iew.iewDispStoreInsts             8759667                       # Number of dispatched store instructions
system.cpu0.iew.iewDispNonSpecInsts             21659                       # Number of dispatched non-speculative instructions
system.cpu0.iew.iewIQFullEvents                   583                       # Number of times the IQ has become full, causing a stall
system.cpu0.iew.iewLSQFullEvents                 6657                       # Number of times the LSQ has become full, causing a stall
system.cpu0.iew.memOrderViolationEvents          2344                       # Number of memory order violations
system.cpu0.iew.predictedTakenIncorrect        291061                       # Number of branches that were predicted taken incorrectly
system.cpu0.iew.predictedNotTakenIncorrect      1042277                       # Number of branches that were predicted not taken incorrectly
system.cpu0.iew.branchMispredicts             1333338                       # Number of branch mispredicts detected at execute
system.cpu0.iew.iewExecutedInsts             79780123                       # Number of executed instructions
system.cpu0.iew.iewExecLoadInsts              9798715                       # Number of load instructions executed
system.cpu0.iew.iewExecSquashedInsts          2357328                       # Number of squashed instructions skipped in execute
system.cpu0.iew.exec_swp                            0                       # number of swp insts executed
system.cpu0.iew.exec_nop                            0                       # number of nop insts executed
system.cpu0.iew.exec_refs                    17263650                       # number of memory reference insts executed
system.cpu0.iew.exec_branches                 8677168                       # Number of branches executed
system.cpu0.iew.exec_stores                   7464935                       # Number of stores executed
system.cpu0.iew.exec_rate                    2.612770                       # Inst execution rate
system.cpu0.iew.wb_sent                      79277873                       # cumulative count of insts sent to commit
system.cpu0.iew.wb_count                     78742341                       # cumulative count of insts written-back
system.cpu0.iew.wb_producers                 54989108                       # num instructions producing a value
system.cpu0.iew.wb_consumers                 86140130                       # num instructions consuming a value
system.cpu0.iew.wb_rate                      2.578783                       # insts written-back per cycle
system.cpu0.iew.wb_fanout                    0.638368                       # average fanout of values written-back
system.cpu0.commit.commitSquashedInsts       26739898                       # The number of squashed insts skipped by commit
system.cpu0.commit.commitNonSpecStalls             24                       # The number of times commit has been forced to stall to communicate backwards
system.cpu0.commit.branchMispredicts          1017497                       # The number of times a branch was mispredicted
system.cpu0.commit.committed_per_cycle::samples     26464479                       # Number of insts commited each cycle
system.cpu0.commit.committed_per_cycle::mean     2.444535                       # Number of insts commited each cycle
system.cpu0.commit.committed_per_cycle::stdev     2.727063                       # Number of insts commited each cycle
system.cpu0.commit.committed_per_cycle::underflows            0      0.00%      0.00% # Number of insts commited each cycle
system.cpu0.commit.committed_per_cycle::0      9470948     35.79%     35.79% # Number of insts commited each cycle
system.cpu0.commit.committed_per_cycle::1      3811199     14.40%     50.19% # Number of insts commited each cycle
system.cpu0.commit.committed_per_cycle::2      2695437     10.19%     60.37% # Number of insts commited each cycle
system.cpu0.commit.committed_per_cycle::3      3657089     13.82%     74.19% # Number of insts commited each cycle
system.cpu0.commit.committed_per_cycle::4      1127184      4.26%     78.45% # Number of insts commited each cycle
system.cpu0.commit.committed_per_cycle::5      1154576      4.36%     82.81% # Number of insts commited each cycle
system.cpu0.commit.committed_per_cycle::6       833417      3.15%     85.96% # Number of insts commited each cycle
system.cpu0.commit.committed_per_cycle::7       479157      1.81%     87.77% # Number of insts commited each cycle
system.cpu0.commit.committed_per_cycle::8      3235472     12.23%    100.00% # Number of insts commited each cycle
system.cpu0.commit.committed_per_cycle::overflows            0      0.00%    100.00% # Number of insts commited each cycle
system.cpu0.commit.committed_per_cycle::min_value            0                       # Number of insts commited each cycle
system.cpu0.commit.committed_per_cycle::max_value            8                       # Number of insts commited each cycle
system.cpu0.commit.committed_per_cycle::total     26464479                       # Number of insts commited each cycle
system.cpu0.commit.committedInsts            34160052                       # Number of instructions committed
system.cpu0.commit.committedOps              64693333                       # Number of ops (including micro ops) committed
system.cpu0.commit.swp_count                        0                       # Number of s/w prefetches committed
system.cpu0.commit.refs                      14092610                       # Number of memory references committed
system.cpu0.commit.loads                      7743677                       # Number of loads committed
system.cpu0.commit.membars                          0                       # Number of memory barriers committed
system.cpu0.commit.branches                   7517870                       # Number of branches committed
system.cpu0.commit.vec_insts                        0                       # Number of committed Vector instructions.
system.cpu0.commit.fp_insts                   1318106                       # Number of committed floating point instructions.
system.cpu0.commit.int_insts                 63703200                       # Number of committed integer instructions.
system.cpu0.commit.function_calls              468262                       # Number of function calls committed.
system.cpu0.commit.op_class_0::No_OpClass       262511      0.41%      0.41% # Class of committed instruction
system.cpu0.commit.op_class_0::IntAlu        49210844     76.07%     76.47% # Class of committed instruction
system.cpu0.commit.op_class_0::IntMult          54964      0.08%     76.56% # Class of committed instruction
system.cpu0.commit.op_class_0::IntDiv           76720      0.12%     76.68% # Class of committed instruction
system.cpu0.commit.op_class_0::FloatAdd        995684      1.54%     78.22% # Class of committed instruction
system.cpu0.commit.op_class_0::FloatCmp             0      0.00%     78.22% # Class of committed instruction
system.cpu0.commit.op_class_0::FloatCvt             0      0.00%     78.22% # Class of committed instruction
system.cpu0.commit.op_class_0::FloatMult            0      0.00%     78.22% # Class of committed instruction
system.cpu0.commit.op_class_0::FloatMultAcc            0      0.00%     78.22% # Class of committed instruction
system.cpu0.commit.op_class_0::FloatDiv             0      0.00%     78.22% # Class of committed instruction
system.cpu0.commit.op_class_0::FloatMisc            0      0.00%     78.22% # Class of committed instruction
system.cpu0.commit.op_class_0::FloatSqrt            0      0.00%     78.22% # Class of committed instruction
system.cpu0.commit.op_class_0::SimdAdd              0      0.00%     78.22% # Class of committed instruction
system.cpu0.commit.op_class_0::SimdAddAcc            0      0.00%     78.22% # Class of committed instruction
system.cpu0.commit.op_class_0::SimdAlu              0      0.00%     78.22% # Class of committed instruction
system.cpu0.commit.op_class_0::SimdCmp              0      0.00%     78.22% # Class of committed instruction
system.cpu0.commit.op_class_0::SimdCvt              0      0.00%     78.22% # Class of committed instruction
system.cpu0.commit.op_class_0::SimdMisc             0      0.00%     78.22% # Class of committed instruction
system.cpu0.commit.op_class_0::SimdMult             0      0.00%     78.22% # Class of committed instruction
system.cpu0.commit.op_class_0::SimdMultAcc            0      0.00%     78.22% # Class of committed instruction
system.cpu0.commit.op_class_0::SimdShift            0      0.00%     78.22% # Class of committed instruction
system.cpu0.commit.op_class_0::SimdShiftAcc            0      0.00%     78.22% # Class of committed instruction
system.cpu0.commit.op_class_0::SimdSqrt             0      0.00%     78.22% # Class of committed instruction
system.cpu0.commit.op_class_0::SimdFloatAdd            0      0.00%     78.22% # Class of committed instruction
system.cpu0.commit.op_class_0::SimdFloatAlu            0      0.00%     78.22% # Class of committed instruction
system.cpu0.commit.op_class_0::SimdFloatCmp            0      0.00%     78.22% # Class of committed instruction
system.cpu0.commit.op_class_0::SimdFloatCvt            0      0.00%     78.22% # Class of committed instruction
system.cpu0.commit.op_class_0::SimdFloatDiv            0      0.00%     78.22% # Class of committed instruction
system.cpu0.commit.op_class_0::SimdFloatMisc            0      0.00%     78.22% # Class of committed instruction
system.cpu0.commit.op_class_0::SimdFloatMult            0      0.00%     78.22% # Class of committed instruction
system.cpu0.commit.op_class_0::SimdFloatMultAcc            0      0.00%     78.22% # Class of committed instruction
system.cpu0.commit.op_class_0::SimdFloatSqrt            0      0.00%     78.22% # Class of committed instruction
system.cpu0.commit.op_class_0::MemRead        7465115     11.54%     89.76% # Class of committed instruction
system.cpu0.commit.op_class_0::MemWrite       6348933      9.81%     99.57% # Class of committed instruction
system.cpu0.commit.op_class_0::FloatMemRead       278562      0.43%    100.00% # Class of committed instruction
system.cpu0.commit.op_class_0::FloatMemWrite            0      0.00%    100.00% # Class of committed instruction
system.cpu0.commit.op_class_0::IprAccess            0      0.00%    100.00% # Class of committed instruction
system.cpu0.commit.op_class_0::InstPrefetch            0      0.00%    100.00% # Class of committed instruction
system.cpu0.commit.op_class_0::total         64693333                       # Class of committed instruction
system.cpu0.commit.bw_lim_events              3235472                       # number cycles where commit BW limit reached
system.cpu0.rob.rob_reads                   114662238                       # The number of ROB reads
system.cpu0.rob.rob_writes                  186969623                       # The number of ROB writes
system.cpu0.timesIdled                          13086                       # Number of times that the entire CPU went into an idle state and unscheduled itself
system.cpu0.idleCycles                          44622                       # Total number of cycles that the CPU has spent unscheduled due to idling
system.cpu0.committedInsts                   34160052                       # Number of Instructions Simulated
system.cpu0.committedOps                     64693333                       # Number of Ops (including micro ops) Simulated
system.cpu0.cpi                              0.893871                       # CPI: Cycles Per Instruction
system.cpu0.cpi_total                        0.893871                       # CPI: Total CPI of All Threads
system.cpu0.ipc                              1.118729                       # IPC: Instructions Per Cycle
system.cpu0.ipc_total                        1.118729                       # IPC: Total IPC of All Threads
system.cpu0.int_regfile_reads               115794127                       # number of integer regfile reads
system.cpu0.int_regfile_writes               61615383                       # number of integer regfile writes
system.cpu0.fp_regfile_reads                  2474984                       # number of floating regfile reads
system.cpu0.fp_regfile_writes                 1217040                       # number of floating regfile writes
system.cpu0.cc_regfile_reads                 40536722                       # number of cc regfile reads
system.cpu0.cc_regfile_writes                21172732                       # number of cc regfile writes
system.cpu0.misc_regfile_reads               35032595                       # number of misc regfile reads
system.cpu0.dcache.tags.pwrStateResidencyTicks::UNDEFINED  15267344125                       # Cumulative time (in ticks) in various power states
system.cpu0.dcache.tags.replacements            10675                       # number of replacements
system.cpu0.dcache.tags.tagsinuse                 512                       # Cycle average of tags in use
system.cpu0.dcache.tags.total_refs            8115498                       # Total number of references to valid blocks.
system.cpu0.dcache.tags.sampled_refs            10675                       # Sample count of references to valid blocks.
system.cpu0.dcache.tags.avg_refs           760.234005                       # Average number of references to valid blocks.
system.cpu0.dcache.tags.warmup_cycle                0                       # Cycle when the warmup percentage was hit.
system.cpu0.dcache.tags.occ_blocks::cpu0.data          512                       # Average occupied blocks per requestor
system.cpu0.dcache.tags.occ_percent::cpu0.data            1                       # Average percentage of cache occupancy
system.cpu0.dcache.tags.occ_percent::total            1                       # Average percentage of cache occupancy
system.cpu0.dcache.tags.occ_task_id_blocks::1024          512                       # Occupied blocks per task id
system.cpu0.dcache.tags.age_task_id_blocks_1024::0           14                       # Occupied blocks per task id
system.cpu0.dcache.tags.age_task_id_blocks_1024::1           51                       # Occupied blocks per task id
system.cpu0.dcache.tags.age_task_id_blocks_1024::2          243                       # Occupied blocks per task id
system.cpu0.dcache.tags.age_task_id_blocks_1024::3          108                       # Occupied blocks per task id
system.cpu0.dcache.tags.age_task_id_blocks_1024::4           96                       # Occupied blocks per task id
system.cpu0.dcache.tags.occ_task_id_percent::1024            1                       # Percentage of cache occupancy per task id
system.cpu0.dcache.tags.tag_accesses         59256035                       # Number of tag accesses
system.cpu0.dcache.tags.data_accesses        59256035                       # Number of data accesses
system.cpu0.dcache.pwrStateResidencyTicks::UNDEFINED  15267344125                       # Cumulative time (in ticks) in various power states
system.cpu0.dcache.ReadReq_hits::cpu0.data      8442404                       # number of ReadReq hits
system.cpu0.dcache.ReadReq_hits::total        8442404                       # number of ReadReq hits
system.cpu0.dcache.WriteReq_hits::cpu0.data      6348573                       # number of WriteReq hits
system.cpu0.dcache.WriteReq_hits::total       6348573                       # number of WriteReq hits
system.cpu0.dcache.demand_hits::cpu0.data     14790977                       # number of demand (read+write) hits
system.cpu0.dcache.demand_hits::total        14790977                       # number of demand (read+write) hits
system.cpu0.dcache.overall_hits::cpu0.data     14790977                       # number of overall hits
system.cpu0.dcache.overall_hits::total       14790977                       # number of overall hits
system.cpu0.dcache.ReadReq_misses::cpu0.data        16807                       # number of ReadReq misses
system.cpu0.dcache.ReadReq_misses::total        16807                       # number of ReadReq misses
system.cpu0.dcache.WriteReq_misses::cpu0.data         3556                       # number of WriteReq misses
system.cpu0.dcache.WriteReq_misses::total         3556                       # number of WriteReq misses
system.cpu0.dcache.demand_misses::cpu0.data        20363                       # number of demand (read+write) misses
system.cpu0.dcache.demand_misses::total         20363                       # number of demand (read+write) misses
system.cpu0.dcache.overall_misses::cpu0.data        20363                       # number of overall misses
system.cpu0.dcache.overall_misses::total        20363                       # number of overall misses
system.cpu0.dcache.ReadReq_miss_latency::cpu0.data    221834500                       # number of ReadReq miss cycles
system.cpu0.dcache.ReadReq_miss_latency::total    221834500                       # number of ReadReq miss cycles
system.cpu0.dcache.WriteReq_miss_latency::cpu0.data    528155500                       # number of WriteReq miss cycles
system.cpu0.dcache.WriteReq_miss_latency::total    528155500                       # number of WriteReq miss cycles
system.cpu0.dcache.demand_miss_latency::cpu0.data    749990000                       # number of demand (read+write) miss cycles
system.cpu0.dcache.demand_miss_latency::total    749990000                       # number of demand (read+write) miss cycles
system.cpu0.dcache.overall_miss_latency::cpu0.data    749990000                       # number of overall miss cycles
system.cpu0.dcache.overall_miss_latency::total    749990000                       # number of overall miss cycles
system.cpu0.dcache.ReadReq_accesses::cpu0.data      8459211                       # number of ReadReq accesses(hits+misses)
system.cpu0.dcache.ReadReq_accesses::total      8459211                       # number of ReadReq accesses(hits+misses)
system.cpu0.dcache.WriteReq_accesses::cpu0.data      6352129                       # number of WriteReq accesses(hits+misses)
system.cpu0.dcache.WriteReq_accesses::total      6352129                       # number of WriteReq accesses(hits+misses)
system.cpu0.dcache.demand_accesses::cpu0.data     14811340                       # number of demand (read+write) accesses
system.cpu0.dcache.demand_accesses::total     14811340                       # number of demand (read+write) accesses
system.cpu0.dcache.overall_accesses::cpu0.data     14811340                       # number of overall (read+write) accesses
system.cpu0.dcache.overall_accesses::total     14811340                       # number of overall (read+write) accesses
system.cpu0.dcache.ReadReq_miss_rate::cpu0.data     0.001987                       # miss rate for ReadReq accesses
system.cpu0.dcache.ReadReq_miss_rate::total     0.001987                       # miss rate for ReadReq accesses
system.cpu0.dcache.WriteReq_miss_rate::cpu0.data     0.000560                       # miss rate for WriteReq accesses
system.cpu0.dcache.WriteReq_miss_rate::total     0.000560                       # miss rate for WriteReq accesses
system.cpu0.dcache.demand_miss_rate::cpu0.data     0.001375                       # miss rate for demand accesses
system.cpu0.dcache.demand_miss_rate::total     0.001375                       # miss rate for demand accesses
system.cpu0.dcache.overall_miss_rate::cpu0.data     0.001375                       # miss rate for overall accesses
system.cpu0.dcache.overall_miss_rate::total     0.001375                       # miss rate for overall accesses
system.cpu0.dcache.ReadReq_avg_miss_latency::cpu0.data 13198.934968                       # average ReadReq miss latency
system.cpu0.dcache.ReadReq_avg_miss_latency::total 13198.934968                       # average ReadReq miss latency
system.cpu0.dcache.WriteReq_avg_miss_latency::cpu0.data 148525.168729                       # average WriteReq miss latency
system.cpu0.dcache.WriteReq_avg_miss_latency::total 148525.168729                       # average WriteReq miss latency
system.cpu0.dcache.demand_avg_miss_latency::cpu0.data 36831.017041                       # average overall miss latency
system.cpu0.dcache.demand_avg_miss_latency::total 36831.017041                       # average overall miss latency
system.cpu0.dcache.overall_avg_miss_latency::cpu0.data 36831.017041                       # average overall miss latency
system.cpu0.dcache.overall_avg_miss_latency::total 36831.017041                       # average overall miss latency
system.cpu0.dcache.blocked_cycles::no_mshrs            0                       # number of cycles access was blocked
system.cpu0.dcache.blocked_cycles::no_targets            0                       # number of cycles access was blocked
system.cpu0.dcache.blocked::no_mshrs                0                       # number of cycles access was blocked
system.cpu0.dcache.blocked::no_targets              0                       # number of cycles access was blocked
system.cpu0.dcache.avg_blocked_cycles::no_mshrs          nan                       # average number of cycles each access was blocked
system.cpu0.dcache.avg_blocked_cycles::no_targets          nan                       # average number of cycles each access was blocked
system.cpu0.dcache.writebacks::writebacks         7799                       # number of writebacks
system.cpu0.dcache.writebacks::total             7799                       # number of writebacks
system.cpu0.dcache.ReadReq_mshr_hits::cpu0.data         9654                       # number of ReadReq MSHR hits
system.cpu0.dcache.ReadReq_mshr_hits::total         9654                       # number of ReadReq MSHR hits
system.cpu0.dcache.WriteReq_mshr_hits::cpu0.data           32                       # number of WriteReq MSHR hits
system.cpu0.dcache.WriteReq_mshr_hits::total           32                       # number of WriteReq MSHR hits
system.cpu0.dcache.demand_mshr_hits::cpu0.data         9686                       # number of demand (read+write) MSHR hits
system.cpu0.dcache.demand_mshr_hits::total         9686                       # number of demand (read+write) MSHR hits
system.cpu0.dcache.overall_mshr_hits::cpu0.data         9686                       # number of overall MSHR hits
system.cpu0.dcache.overall_mshr_hits::total         9686                       # number of overall MSHR hits
system.cpu0.dcache.ReadReq_mshr_misses::cpu0.data         7153                       # number of ReadReq MSHR misses
system.cpu0.dcache.ReadReq_mshr_misses::total         7153                       # number of ReadReq MSHR misses
system.cpu0.dcache.WriteReq_mshr_misses::cpu0.data         3524                       # number of WriteReq MSHR misses
system.cpu0.dcache.WriteReq_mshr_misses::total         3524                       # number of WriteReq MSHR misses
system.cpu0.dcache.demand_mshr_misses::cpu0.data        10677                       # number of demand (read+write) MSHR misses
system.cpu0.dcache.demand_mshr_misses::total        10677                       # number of demand (read+write) MSHR misses
system.cpu0.dcache.overall_mshr_misses::cpu0.data        10677                       # number of overall MSHR misses
system.cpu0.dcache.overall_mshr_misses::total        10677                       # number of overall MSHR misses
system.cpu0.dcache.ReadReq_mshr_miss_latency::cpu0.data     90666000                       # number of ReadReq MSHR miss cycles
system.cpu0.dcache.ReadReq_mshr_miss_latency::total     90666000                       # number of ReadReq MSHR miss cycles
system.cpu0.dcache.WriteReq_mshr_miss_latency::cpu0.data    520210500                       # number of WriteReq MSHR miss cycles
system.cpu0.dcache.WriteReq_mshr_miss_latency::total    520210500                       # number of WriteReq MSHR miss cycles
system.cpu0.dcache.demand_mshr_miss_latency::cpu0.data    610876500                       # number of demand (read+write) MSHR miss cycles
system.cpu0.dcache.demand_mshr_miss_latency::total    610876500                       # number of demand (read+write) MSHR miss cycles
system.cpu0.dcache.overall_mshr_miss_latency::cpu0.data    610876500                       # number of overall MSHR miss cycles
system.cpu0.dcache.overall_mshr_miss_latency::total    610876500                       # number of overall MSHR miss cycles
system.cpu0.dcache.ReadReq_mshr_miss_rate::cpu0.data     0.000846                       # mshr miss rate for ReadReq accesses
[...]
system.l2.WritebackDirty_accesses::writebacks         7799                       # number of WritebackDirty accesses(hits+misses)
system.l2.WritebackDirty_accesses::total         7799                       # number of WritebackDirty accesses(hits+misses)
system.l2.WritebackClean_accesses::writebacks        66072                       # number of WritebackClean accesses(hits+misses)
system.l2.WritebackClean_accesses::total        66072                       # number of WritebackClean accesses(hits+misses)
system.l2.UpgradeReq_accesses::cpu0.data            2                       # number of UpgradeReq accesses(hits+misses)
system.l2.UpgradeReq_accesses::total                2                       # number of UpgradeReq accesses(hits+misses)
system.l2.ReadExReq_accesses::cpu0.data          3522                       # number of ReadExReq accesses(hits+misses)
system.l2.ReadExReq_accesses::total              3522                       # number of ReadExReq accesses(hits+misses)
system.l2.ReadCleanReq_accesses::cpu0.inst        66073                       # number of ReadCleanReq accesses(hits+misses)
system.l2.ReadCleanReq_accesses::total          66073                       # number of ReadCleanReq accesses(hits+misses)
system.l2.ReadSharedReq_accesses::cpu0.data         7153                       # number of ReadSharedReq accesses(hits+misses)
system.l2.ReadSharedReq_accesses::total          7153                       # number of ReadSharedReq accesses(hits+misses)
system.l2.demand_accesses::cpu0.inst            66073                       # number of demand (read+write) accesses
system.l2.demand_accesses::cpu0.data            10675                       # number of demand (read+write) accesses
system.l2.demand_accesses::total                76748                       # number of demand (read+write) accesses
system.l2.overall_accesses::cpu0.inst           66073                       # number of overall (read+write) accesses
system.l2.overall_accesses::cpu0.data           10675                       # number of overall (read+write) accesses
system.l2.overall_accesses::total               76748                       # number of overall (read+write) accesses
system.l2.ReadExReq_miss_rate::cpu0.data     0.953719                       # miss rate for ReadExReq accesses
system.l2.ReadExReq_miss_rate::total         0.953719                       # miss rate for ReadExReq accesses
system.l2.ReadSharedReq_miss_rate::cpu0.data     0.005033                       # miss rate for ReadSharedReq accesses
system.l2.ReadSharedReq_miss_rate::total     0.005033                       # miss rate for ReadSharedReq accesses
system.l2.demand_miss_rate::cpu0.data        0.318033                       # miss rate for demand accesses
system.l2.demand_miss_rate::total            0.044236                       # miss rate for demand accesses
system.l2.overall_miss_rate::cpu0.data       0.318033                       # miss rate for overall accesses
system.l2.overall_miss_rate::total           0.044236                       # miss rate for overall accesses
system.l2.ReadExReq_avg_miss_latency::cpu0.data 152776.719262                       # average ReadExReq miss latency
system.l2.ReadExReq_avg_miss_latency::total 152776.719262                       # average ReadExReq miss latency
system.l2.ReadSharedReq_avg_miss_latency::cpu0.data 132027.777778                       # average ReadSharedReq miss latency
system.l2.ReadSharedReq_avg_miss_latency::total 132027.777778                       # average ReadSharedReq miss latency
system.l2.demand_avg_miss_latency::cpu0.data 152556.701031                       # average overall miss latency
system.l2.demand_avg_miss_latency::total 152556.701031                       # average overall miss latency
system.l2.overall_avg_miss_latency::cpu0.data 152556.701031                       # average overall miss latency
system.l2.overall_avg_miss_latency::total 152556.701031                       # average overall miss latency
system.l2.blocked_cycles::no_mshrs                  0                       # number of cycles access was blocked
system.l2.blocked_cycles::no_targets                0                       # number of cycles access was blocked
system.l2.blocked::no_mshrs                         0                       # number of cycles access was blocked
system.l2.blocked::no_targets                       0                       # number of cycles access was blocked
system.l2.avg_blocked_cycles::no_mshrs            nan                       # average number of cycles each access was blocked
system.l2.avg_blocked_cycles::no_targets          nan                       # average number of cycles each access was blocked
system.l2.ReadExReq_mshr_misses::cpu0.data         3359                       # number of ReadExReq MSHR misses
system.l2.ReadExReq_mshr_misses::total           3359                       # number of ReadExReq MSHR misses
system.l2.ReadSharedReq_mshr_misses::cpu0.data           36                       # number of ReadSharedReq MSHR misses
system.l2.ReadSharedReq_mshr_misses::total           36                       # number of ReadSharedReq MSHR misses
system.l2.demand_mshr_misses::cpu0.data          3395                       # number of demand (read+write) MSHR misses
system.l2.demand_mshr_misses::total              3395                       # number of demand (read+write) MSHR misses
system.l2.overall_mshr_misses::cpu0.data         3395                       # number of overall MSHR misses
system.l2.overall_mshr_misses::total             3395                       # number of overall MSHR misses
system.l2.ReadExReq_mshr_miss_latency::cpu0.data    479587000                       # number of ReadExReq MSHR miss cycles
system.l2.ReadExReq_mshr_miss_latency::total    479587000                       # number of ReadExReq MSHR miss cycles
system.l2.ReadSharedReq_mshr_miss_latency::cpu0.data      4393000                       # number of ReadSharedReq MSHR miss cycles
system.l2.ReadSharedReq_mshr_miss_latency::total      4393000                       # number of ReadSharedReq MSHR miss cycles
system.l2.demand_mshr_miss_latency::cpu0.data    483980000                       # number of demand (read+write) MSHR miss cycles
system.l2.demand_mshr_miss_latency::total    483980000                       # number of demand (read+write) MSHR miss cycles
system.l2.overall_mshr_miss_latency::cpu0.data    483980000                       # number of overall MSHR miss cycles
system.l2.overall_mshr_miss_latency::total    483980000                       # number of overall MSHR miss cycles
system.l2.ReadExReq_mshr_miss_rate::cpu0.data     0.953719                       # mshr miss rate for ReadExReq accesses
system.l2.ReadExReq_mshr_miss_rate::total     0.953719                       # mshr miss rate for ReadExReq accesses
system.l2.ReadSharedReq_mshr_miss_rate::cpu0.data     0.005033                       # mshr miss rate for ReadSharedReq accesses
system.l2.ReadSharedReq_mshr_miss_rate::total     0.005033                       # mshr miss rate for ReadSharedReq accesses
system.l2.demand_mshr_miss_rate::cpu0.data     0.318033                       # mshr miss rate for demand accesses
system.l2.demand_mshr_miss_rate::total       0.044236                       # mshr miss rate for demand accesses
system.l2.overall_mshr_miss_rate::cpu0.data     0.318033                       # mshr miss rate for overall accesses
system.l2.overall_mshr_miss_rate::total      0.044236                       # mshr miss rate for overall accesses
system.l2.ReadExReq_avg_mshr_miss_latency::cpu0.data 142776.719262                       # average ReadExReq mshr miss latency
system.l2.ReadExReq_avg_mshr_miss_latency::total 142776.719262                       # average ReadExReq mshr miss latency
system.l2.ReadSharedReq_avg_mshr_miss_latency::cpu0.data 122027.777778                       # average ReadSharedReq mshr miss latency
system.l2.ReadSharedReq_avg_mshr_miss_latency::total 122027.777778                       # average ReadSharedReq mshr miss latency
system.l2.demand_avg_mshr_miss_latency::cpu0.data 142556.701031                       # average overall mshr miss latency
system.l2.demand_avg_mshr_miss_latency::total 142556.701031                       # average overall mshr miss latency
system.l2.overall_avg_mshr_miss_latency::cpu0.data 142556.701031                       # average overall mshr miss latency
system.l2.overall_avg_mshr_miss_latency::total 142556.701031                       # average overall mshr miss latency
system.membus.snoop_filter.tot_requests          3395                       # Total number of requests made to the snoop filter.
system.membus.snoop_filter.hit_single_requests            0                       # Number of requests hitting in the snoop filter with a single holder of the requested data.
system.membus.snoop_filter.hit_multi_requests            0                       # Number of requests hitting in the snoop filter with multiple (>1) holders of the requested data.
system.membus.snoop_filter.tot_snoops               0                       # Total number of snoops made to the snoop filter.
system.membus.snoop_filter.hit_single_snoops            0                       # Number of snoops hitting in the snoop filter with a single holder of the requested data.
system.membus.snoop_filter.hit_multi_snoops            0                       # Number of snoops hitting in the snoop filter with multiple (>1) holders of the requested data.
system.membus.pwrStateResidencyTicks::UNDEFINED  15267344125                       # Cumulative time (in ticks) in various power states
system.membus.trans_dist::ReadResp                 36                       # Transaction distribution
system.membus.trans_dist::ReadExReq              3359                       # Transaction distribution
system.membus.trans_dist::ReadExResp             3359                       # Transaction distribution
system.membus.trans_dist::ReadSharedReq            36                       # Transaction distribution
system.membus.pkt_count_system.l2.mem_side::system.mem_ctrls.port         6790                       # Packet count per connected master and slave (bytes)
system.membus.pkt_count_system.l2.mem_side::total         6790                       # Packet count per connected master and slave (bytes)
system.membus.pkt_count::total                   6790                       # Packet count per connected master and slave (bytes)
system.membus.pkt_size_system.l2.mem_side::system.mem_ctrls.port       217280                       # Cumulative packet size per connected master and slave (bytes)
system.membus.pkt_size_system.l2.mem_side::total       217280                       # Cumulative packet size per connected master and slave (bytes)
system.membus.pkt_size::total                  217280                       # Cumulative packet size per connected master and slave (bytes)
system.membus.snoops                                0                       # Total snoops (count)
system.membus.snoopTraffic                          0                       # Total snoop traffic (bytes)
system.membus.snoop_fanout::samples              3395                       # Request fanout histogram
system.membus.snoop_fanout::mean                    0                       # Request fanout histogram
system.membus.snoop_fanout::stdev                   0                       # Request fanout histogram
system.membus.snoop_fanout::underflows              0      0.00%      0.00% # Request fanout histogram
system.membus.snoop_fanout::0                    3395    100.00%    100.00% # Request fanout histogram
system.membus.snoop_fanout::1                       0      0.00%    100.00% # Request fanout histogram
system.membus.snoop_fanout::overflows               0      0.00%    100.00% # Request fanout histogram
system.membus.snoop_fanout::min_value               0                       # Request fanout histogram
system.membus.snoop_fanout::max_value               0                       # Request fanout histogram
system.membus.snoop_fanout::total                3395                       # Request fanout histogram
system.membus.reqLayer12.occupancy            4231500                       # Layer occupancy (ticks)
system.membus.reqLayer12.utilization              0.0                       # Layer utilization (%)
system.membus.respLayer1.occupancy           18648250                       # Layer occupancy (ticks)
system.membus.respLayer1.utilization              0.1                       # Layer utilization (%)
system.tol2bus.snoop_filter.tot_requests       153499                       # Total number of requests made to the snoop filter.
system.tol2bus.snoop_filter.hit_single_requests        76747                       # Number of requests hitting in the snoop filter with a single holder of the requested data.
system.tol2bus.snoop_filter.hit_multi_requests            5                       # Number of requests hitting in the snoop filter with multiple (>1) holders of the requested data.
system.tol2bus.snoop_filter.tot_snoops              0                       # Total number of snoops made to the snoop filter.
system.tol2bus.snoop_filter.hit_single_snoops            0                       # Number of snoops hitting in the snoop filter with a single holder of the requested data.
system.tol2bus.snoop_filter.hit_multi_snoops            0                       # Number of snoops hitting in the snoop filter with multiple (>1) holders of the requested data.
system.tol2bus.pwrStateResidencyTicks::UNDEFINED  15267344125                       # Cumulative time (in ticks) in various power states
system.tol2bus.trans_dist::ReadResp             73227                       # Transaction distribution
system.tol2bus.trans_dist::WritebackDirty         7799                       # Transaction distribution
system.tol2bus.trans_dist::WritebackClean        66072                       # Transaction distribution
system.tol2bus.trans_dist::CleanEvict            2876                       # Transaction distribution
system.tol2bus.trans_dist::UpgradeReq               2                       # Transaction distribution
system.tol2bus.trans_dist::UpgradeResp              2                       # Transaction distribution
system.tol2bus.trans_dist::ReadExReq             3522                       # Transaction distribution
system.tol2bus.trans_dist::ReadExResp            3522                       # Transaction distribution
system.tol2bus.trans_dist::ReadCleanReq         66075                       # Transaction distribution
system.tol2bus.trans_dist::ReadSharedReq         7153                       # Transaction distribution
system.tol2bus.pkt_count_system.cpu0.icache.mem_side::system.l2.cpu_side       198219                       # Packet count per connected master and slave (bytes)
system.tol2bus.pkt_count_system.cpu0.dcache.mem_side::system.l2.cpu_side        32029                       # Packet count per connected master and slave (bytes)
system.tol2bus.pkt_count::total                230248                       # Packet count per connected master and slave (bytes)
system.tol2bus.pkt_size_system.cpu0.icache.mem_side::system.l2.cpu_side      8457216                       # Cumulative packet size per connected master and slave (bytes)
system.tol2bus.pkt_size_system.cpu0.dcache.mem_side::system.l2.cpu_side      1182336                       # Cumulative packet size per connected master and slave (bytes)
system.tol2bus.pkt_size::total                9639552                       # Cumulative packet size per connected master and slave (bytes)
system.tol2bus.snoops                               2                       # Total snoops (count)
system.tol2bus.snoopTraffic                       128                       # Total snoop traffic (bytes)
system.tol2bus.snoop_fanout::samples            76752                       # Request fanout histogram
system.tol2bus.snoop_fanout::mean            0.000065                       # Request fanout histogram
system.tol2bus.snoop_fanout::stdev           0.008071                       # Request fanout histogram
system.tol2bus.snoop_fanout::underflows             0      0.00%      0.00% # Request fanout histogram
system.tol2bus.snoop_fanout::0                  76747     99.99%     99.99% # Request fanout histogram
system.tol2bus.snoop_fanout::1                      5      0.01%    100.00% # Request fanout histogram
system.tol2bus.snoop_fanout::2                      0      0.00%    100.00% # Request fanout histogram
system.tol2bus.snoop_fanout::3                      0      0.00%    100.00% # Request fanout histogram
system.tol2bus.snoop_fanout::4                      0      0.00%    100.00% # Request fanout histogram
system.tol2bus.snoop_fanout::5                      0      0.00%    100.00% # Request fanout histogram
system.tol2bus.snoop_fanout::6                      0      0.00%    100.00% # Request fanout histogram
system.tol2bus.snoop_fanout::7                      0      0.00%    100.00% # Request fanout histogram
system.tol2bus.snoop_fanout::8                      0      0.00%    100.00% # Request fanout histogram
system.tol2bus.snoop_fanout::9                      0      0.00%    100.00% # Request fanout histogram
system.tol2bus.snoop_fanout::10                     0      0.00%    100.00% # Request fanout histogram
system.tol2bus.snoop_fanout::11                     0      0.00%    100.00% # Request fanout histogram
system.tol2bus.snoop_fanout::12                     0      0.00%    100.00% # Request fanout histogram
system.tol2bus.snoop_fanout::13                     0      0.00%    100.00% # Request fanout histogram
system.tol2bus.snoop_fanout::14                     0      0.00%    100.00% # Request fanout histogram
system.tol2bus.snoop_fanout::15                     0      0.00%    100.00% # Request fanout histogram
system.tol2bus.snoop_fanout::16                     0      0.00%    100.00% # Request fanout histogram
system.tol2bus.snoop_fanout::17                     0      0.00%    100.00% # Request fanout histogram
system.tol2bus.snoop_fanout::18                     0      0.00%    100.00% # Request fanout histogram
system.tol2bus.snoop_fanout::19                     0      0.00%    100.00% # Request fanout histogram
system.tol2bus.snoop_fanout::20                     0      0.00%    100.00% # Request fanout histogram
system.tol2bus.snoop_fanout::21                     0      0.00%    100.00% # Request fanout histogram
system.tol2bus.snoop_fanout::22                     0      0.00%    100.00% # Request fanout histogram
system.tol2bus.snoop_fanout::23                     0      0.00%    100.00% # Request fanout histogram
system.tol2bus.snoop_fanout::24                     0      0.00%    100.00% # Request fanout histogram
system.tol2bus.snoop_fanout::overflows              0      0.00%    100.00% # Request fanout histogram
system.tol2bus.snoop_fanout::min_value              0                       # Request fanout histogram
system.tol2bus.snoop_fanout::max_value              1                       # Request fanout histogram
system.tol2bus.snoop_fanout::total              76752                       # Request fanout histogram
system.tol2bus.reqLayer0.occupancy          150620500                       # Layer occupancy (ticks)
system.tol2bus.reqLayer0.utilization              1.0                       # Layer utilization (%)
system.tol2bus.respLayer0.occupancy          99111499                       # Layer occupancy (ticks)
system.tol2bus.respLayer0.utilization             0.6                       # Layer utilization (%)
system.tol2bus.respLayer1.occupancy          16019488                       # Layer occupancy (ticks)
system.tol2bus.respLayer1.utilization             0.1                       # Layer utilization (%)

---------- End Simulation Statistics   ----------
