
---------- Begin Simulation Statistics ----------
sim_seconds                                  0.015267                       # Number of seconds simulated
sim_ticks                                 15267344125                       # Number of ticks simulated
final_tick                               2335903651125                       # Number of ticks from beginning of simulation (restored from checkpoints and never reset)
sim_freq                                 1000000000000                       # Frequency of simulated ticks
host_inst_rate                               20133805                       # Simulator instruction rate (inst/s)
host_op_rate                                 36933445                       # Simulator op (including micro ops) rate (op/s)
host_tick_rate                               59690915                       # Simulator tick rate (ticks/s)
host_mem_usage                                3428828                       # Number of bytes of host memory used
host_seconds                                   255.77                       # Real time elapsed on the host
sim_insts                                  5149690083                       # Number of instructions simulated
sim_ops                                    9446589776                       # Number of ops (including micro ops) simulated
system.voltage_domain.voltage                       1                       # Voltage in Volts
system.clk_domain.clock                          1000                       # Clock period in ticks
system.mem_ctrls.pwrStateResidencyTicks::UNDEFINED  15267344125                       # Cumulative time (in ticks) in various power states
system.mem_ctrls.bytes_read::cpu0.inst            192                       # Number of bytes read from this memory
system.mem_ctrls.bytes_read::cpu0.data         878080                       # Number of bytes read from this memory
system.mem_ctrls.bytes_read::total             878272                       # Number of bytes read from this memory
system.mem_ctrls.bytes_inst_read::cpu0.inst          192                       # Number of instructions bytes read from this memory
system.mem_ctrls.bytes_inst_read::total           192                       # Number of instructions bytes read from this memory
system.mem_ctrls.bytes_written::writebacks       872000                       # Number of bytes written to this memory
system.mem_ctrls.bytes_written::total          872000                       # Number of bytes written to this memory
system.mem_ctrls.num_reads::cpu0.inst               3                       # Number of read requests responded to by this memory
system.mem_ctrls.num_reads::cpu0.data           13720                       # Number of read requests responded to by this memory
system.mem_ctrls.num_reads::total               13723                       # Number of read requests responded to by this memory
system.mem_ctrls.num_writes::writebacks         13625                       # Number of write requests responded to by this memory
system.mem_ctrls.num_writes::total              13625                       # Number of write requests responded to by this memory
system.mem_ctrls.bw_read::cpu0.inst             12576                       # Total read bandwidth from this memory (bytes/s)
system.mem_ctrls.bw_read::cpu0.data          57513605                       # Total read bandwidth from this memory (bytes/s)
system.mem_ctrls.bw_read::total              57526181                       # Total read bandwidth from this memory (bytes/s)
system.mem_ctrls.bw_inst_read::cpu0.inst        12576                       # Instruction read bandwidth from this memory (bytes/s)
system.mem_ctrls.bw_inst_read::total            12576                       # Instruction read bandwidth from this memory (bytes/s)
system.mem_ctrls.bw_write::writebacks        57115369                       # Write bandwidth from this memory (bytes/s)
system.mem_ctrls.bw_write::total             57115369                       # Write bandwidth from this memory (bytes/s)
system.mem_ctrls.bw_total::writebacks        57115369                       # Total bandwidth to/from this memory (bytes/s)
system.mem_ctrls.bw_total::cpu0.inst            12576                       # Total bandwidth to/from this memory (bytes/s)
system.mem_ctrls.bw_total::cpu0.data         57513605                       # Total bandwidth to/from this memory (bytes/s)
system.mem_ctrls.bw_total::total            114641550                       # Total bandwidth to/from this memory (bytes/s)
system.mem_ctrls.readReqs                       13723                       # Number of read requests accepted
system.mem_ctrls.writeReqs                      13625                       # Number of write requests accepted
system.mem_ctrls.readBursts                     13723                       # Number of DRAM read bursts, including those serviced by the write queue
system.mem_ctrls.writeBursts                    13625                       # Number of DRAM write bursts, including those merged in the write queue
system.mem_ctrls.bytesReadDRAM                 878080                       # Total number of bytes read from DRAM
system.mem_ctrls.bytesReadWrQ                     192                       # Total number of bytes read from write queue
system.mem_ctrls.bytesWritten                  872192                       # Total number of bytes written to DRAM
system.mem_ctrls.bytesReadSys                  878272                       # Total read bytes from the system interface side
system.mem_ctrls.bytesWrittenSys               872000                       # Total written bytes from the system interface side
system.mem_ctrls.servicedByWrQ                      3                       # Number of DRAM read bursts serviced by the write queue
system.mem_ctrls.mergedWrBursts                     0                       # Number of DRAM write bursts merged with an existing one
system.mem_ctrls.neitherReadNorWriteReqs            0                       # Number of requests that are neither read nor write
system.mem_ctrls.perBankRdBursts::0               816                       # Per bank write bursts
system.mem_ctrls.perBankRdBursts::1               831                       # Per bank write bursts
system.mem_ctrls.perBankRdBursts::2               801                       # Per bank write bursts
system.mem_ctrls.perBankRdBursts::3               787                       # Per bank write bursts
system.mem_ctrls.perBankRdBursts::4               829                       # Per bank write bursts
system.mem_ctrls.perBankRdBursts::5               804                       # Per bank write bursts
system.mem_ctrls.perBankRdBursts::6               867                       # Per bank write bursts
system.mem_ctrls.perBankRdBursts::7               843                       # Per bank write bursts
system.mem_ctrls.perBankRdBursts::8               996                       # Per bank write bursts
system.mem_ctrls.perBankRdBursts::9               913                       # Per bank write bursts
system.mem_ctrls.perBankRdBursts::10              931                       # Per bank write bursts
system.mem_ctrls.perBankRdBursts::11              957                       # Per bank write bursts
system.mem_ctrls.perBankRdBursts::12              919                       # Per bank write bursts
system.mem_ctrls.perBankRdBursts::13              843                       # Per bank write bursts
system.mem_ctrls.perBankRdBursts::14              792                       # Per bank write bursts
system.mem_ctrls.perBankRdBursts::15              791                       # Per bank write bursts
system.mem_ctrls.perBankWrBursts::0               813                       # Per bank write bursts
system.mem_ctrls.perBankWrBursts::1               823                       # Per bank write bursts
system.mem_ctrls.perBankWrBursts::2               795                       # Per bank write bursts
system.mem_ctrls.perBankWrBursts::3               783                       # Per bank write bursts
system.mem_ctrls.perBankWrBursts::4               827                       # Per bank write bursts
system.mem_ctrls.perBankWrBursts::5               800                       # Per bank write bursts
system.mem_ctrls.perBankWrBursts::6               859                       # Per bank write bursts
system.mem_ctrls.perBankWrBursts::7               859                       # Per bank write bursts
system.mem_ctrls.perBankWrBursts::8               969                       # Per bank write bursts
system.mem_ctrls.perBankWrBursts::9               904                       # Per bank write bursts
system.mem_ctrls.perBankWrBursts::10              921                       # Per bank write bursts
system.mem_ctrls.perBankWrBursts::11              953                       # Per bank write bursts
system.mem_ctrls.perBankWrBursts::12              905                       # Per bank write bursts
system.mem_ctrls.perBankWrBursts::13              842                       # Per bank write bursts
system.mem_ctrls.perBankWrBursts::14              789                       # Per bank write bursts
system.mem_ctrls.perBankWrBursts::15              786                       # Per bank write bursts
system.mem_ctrls.numRdRetry                         0                       # Number of times read queue was full causing retry
system.mem_ctrls.numWrRetry                         0                       # Number of times write queue was full causing retry
system.mem_ctrls.totGap                   15268014000                       # Total gap between requests
system.mem_ctrls.readPktSize::0                     0                       # Read request sizes (log2)
system.mem_ctrls.readPktSize::1                     0                       # Read request sizes (log2)
system.mem_ctrls.readPktSize::2                     0                       # Read request sizes (log2)
system.mem_ctrls.readPktSize::3                     0                       # Read request sizes (log2)
system.mem_ctrls.readPktSize::4                     0                       # Read request sizes (log2)
system.mem_ctrls.readPktSize::5                     0                       # Read request sizes (log2)
system.mem_ctrls.readPktSize::6                 13723                       # Read request sizes (log2)
system.mem_ctrls.writePktSize::0                    0                       # Write request sizes (log2)
system.mem_ctrls.writePktSize::1                    0                       # Write request sizes (log2)
system.mem_ctrls.writePktSize::2                    0                       # Write request sizes (log2)
system.mem_ctrls.writePktSize::3                    0                       # Write request sizes (log2)
system.mem_ctrls.writePktSize::4                    0                       # Write request sizes (log2)
system.mem_ctrls.writePktSize::5                    0                       # Write request sizes (log2)
system.mem_ctrls.writePktSize::6                13625                       # Write request sizes (log2)
system.mem_ctrls.rdQLenPdf::0                   13181                       # What read queue length does an incoming req see
system.mem_ctrls.rdQLenPdf::1                     535                       # What read queue length does an incoming req see
system.mem_ctrls.rdQLenPdf::2                       4                       # What read queue length does an incoming req see
system.mem_ctrls.rdQLenPdf::3                       0                       # What read queue length does an incoming req see
system.mem_ctrls.rdQLenPdf::4                       0                       # What read queue length does an incoming req see
system.mem_ctrls.rdQLenPdf::5                       0                       # What read queue length does an incoming req see
system.mem_ctrls.rdQLenPdf::6                       0                       # What read queue length does an incoming req see
system.mem_ctrls.rdQLenPdf::7                       0                       # What read queue length does an incoming req see
system.mem_ctrls.rdQLenPdf::8                       0                       # What read queue length does an incoming req see
system.mem_ctrls.rdQLenPdf::9                       0                       # What read queue length does an incoming req see
system.mem_ctrls.rdQLenPdf::10                      0                       # What read queue length does an incoming req see
system.mem_ctrls.rdQLenPdf::11                      0                       # What read queue length does an incoming req see
system.mem_ctrls.rdQLenPdf::12                      0                       # What read queue length does an incoming req see
system.mem_ctrls.rdQLenPdf::13                      0                       # What read queue length does an incoming req see
system.mem_ctrls.rdQLenPdf::14                      0                       # What read queue length does an incoming req see
system.mem_ctrls.rdQLenPdf::15                      0                       # What read queue length does an incoming req see
system.mem_ctrls.rdQLenPdf::16                      0                       # What read queue length does an incoming req see
system.mem_ctrls.rdQLenPdf::17                      0                       # What read queue length does an incoming req see
system.mem_ctrls.rdQLenPdf::18                      0                       # What read queue length does an incoming req see
system.mem_ctrls.rdQLenPdf::19                      0                       # What read queue length does an incoming req see
system.mem_ctrls.rdQLenPdf::20                      0                       # What read queue length does an incoming req see
system.mem_ctrls.rdQLenPdf::21                      0                       # What read queue length does an incoming req see
system.mem_ctrls.rdQLenPdf::22                      0                       # What read queue length does an incoming req see
system.mem_ctrls.rdQLenPdf::23                      0                       # What read queue length does an incoming req see
system.mem_ctrls.rdQLenPdf::24                      0                       # What read queue length does an incoming req see
system.mem_ctrls.rdQLenPdf::25                      0                       # What read queue length does an incoming req see
system.mem_ctrls.rdQLenPdf::26                      0                       # What read queue length does an incoming req see
system.mem_ctrls.rdQLenPdf::27                      0                       # What read queue length does an incoming req see
system.mem_ctrls.rdQLenPdf::28                      0                       # What read queue length does an incoming req see
system.mem_ctrls.rdQLenPdf::29                      0                       # What read queue length does an incoming req see
system.mem_ctrls.rdQLenPdf::30                      0                       # What read queue length does an incoming req see
system.mem_ctrls.rdQLenPdf::31                      0                       # What read queue length does an incoming req see
system.mem_ctrls.wrQLenPdf::0                       0                       # What write queue length does an incoming req see
system.mem_ctrls.wrQLenPdf::1                       0                       # What write queue length does an incoming req see
system.mem_ctrls.wrQLenPdf::2                       0                       # What write queue length does an incoming req see
system.mem_ctrls.wrQLenPdf::3                       0                       # What write queue length does an incoming req see
system.mem_ctrls.wrQLenPdf::4                       0                       # What write queue length does an incoming req see
system.mem_ctrls.wrQLenPdf::5                       0                       # What write queue length does an incoming req see
system.mem_ctrls.wrQLenPdf::6                       0                       # What write queue length does an incoming req see
system.mem_ctrls.wrQLenPdf::7                       0                       # What write queue length does an incoming req see
system.mem_ctrls.wrQLenPdf::8                       0                       # What write queue length does an incoming req see
system.mem_ctrls.wrQLenPdf::9                       0                       # What write queue length does an incoming req see
system.mem_ctrls.wrQLenPdf::10                      0                       # What write queue length does an incoming req see
system.mem_ctrls.wrQLenPdf::11                      0                       # What write queue length does an incoming req see
system.mem_ctrls.wrQLenPdf::12                      0                       # What write queue length does an incoming req see
system.mem_ctrls.wrQLenPdf::13                      0                       # What write queue length does an incoming req see
system.mem_ctrls.wrQLenPdf::14                      0                       # What write queue length does an incoming req see
system.mem_ctrls.wrQLenPdf::15                    532                       # What write queue length does an incoming req see
system.mem_ctrls.wrQLenPdf::16                    539                       # What write queue length does an incoming req see
system.mem_ctrls.wrQLenPdf::17                    776                       # What write queue length does an incoming req see
system.mem_ctrls.wrQLenPdf::18                    783                       # What write queue length does an incoming req see
system.mem_ctrls.wrQLenPdf::19                    783                       # What write queue length does an incoming req see
system.mem_ctrls.wrQLenPdf::20                    783                       # What write queue length does an incoming req see
system.mem_ctrls.wrQLenPdf::21                    783                       # What write queue length does an incoming req see
system.mem_ctrls.wrQLenPdf::22                    783                       # What write queue length does an incoming req see
system.mem_ctrls.wrQLenPdf::23                    783                       # What write queue length does an incoming req see
system.mem_ctrls.wrQLenPdf::24                    784                       # What write queue length does an incoming req see
system.mem_ctrls.wrQLenPdf::25                    784                       # What write queue length does an incoming req see
system.mem_ctrls.wrQLenPdf::26                    784                       # What write queue length does an incoming req see
system.mem_ctrls.wrQLenPdf::27                    786                       # What write queue length does an incoming req see
system.mem_ctrls.wrQLenPdf::28                    784                       # What write queue length does an incoming req see
system.mem_ctrls.wrQLenPdf::29                    782                       # What write queue length does an incoming req see
system.mem_ctrls.wrQLenPdf::30                    804                       # What write queue length does an incoming req see
system.mem_ctrls.wrQLenPdf::31                    785                       # What write queue length does an incoming req see
system.mem_ctrls.wrQLenPdf::32                    787                       # What write queue length does an incoming req see
system.mem_ctrls.wrQLenPdf::33                      0                       # What write queue length does an incoming req see
system.mem_ctrls.wrQLenPdf::34                      0                       # What write queue length does an incoming req see
system.mem_ctrls.wrQLenPdf::35                      0                       # What write queue length does an incoming req see
system.mem_ctrls.wrQLenPdf::36                      0                       # What write queue length does an incoming req see
system.mem_ctrls.wrQLenPdf::37                      0                       # What write queue length does an incoming req see
system.mem_ctrls.wrQLenPdf::38                      0                       # What write queue length does an incoming req see
system.mem_ctrls.wrQLenPdf::39                      0                       # What write queue length does an incoming req see
system.mem_ctrls.wrQLenPdf::40                      0                       # What write queue length does an incoming req see
system.mem_ctrls.wrQLenPdf::41                      0                       # What write queue length does an incoming req see
system.mem_ctrls.wrQLenPdf::42                      0                       # What write queue length does an incoming req see
system.mem_ctrls.wrQLenPdf::43                      0                       # What write queue length does an incoming req see
system.mem_ctrls.wrQLenPdf::44                      0                       # What write queue length does an incoming req see
system.mem_ctrls.wrQLenPdf::45                      0                       # What write queue length does an incoming req see
system.mem_ctrls.wrQLenPdf::46                      0                       # What write queue length does an incoming req see
system.mem_ctrls.wrQLenPdf::47                      0                       # What write queue length does an incoming req see
system.mem_ctrls.wrQLenPdf::48                      0                       # What write queue length does an incoming req see
system.mem_ctrls.wrQLenPdf::49                      0                       # What write queue length does an incoming req see
system.mem_ctrls.wrQLenPdf::50                      0                       # What write queue length does an incoming req see
system.mem_ctrls.wrQLenPdf::51                      0                       # What write queue length does an incoming req see
system.mem_ctrls.wrQLenPdf::52                      0                       # What write queue length does an incoming req see
system.mem_ctrls.wrQLenPdf::53                      0                       # What write queue length does an incoming req see
system.mem_ctrls.wrQLenPdf::54                      0                       # What write queue length does an incoming req see
system.mem_ctrls.wrQLenPdf::55                      0                       # What write queue length does an incoming req see
system.mem_ctrls.wrQLenPdf::56                      0                       # What write queue length does an incoming req see
system.mem_ctrls.wrQLenPdf::57                      0                       # What write queue length does an incoming req see
system.mem_ctrls.wrQLenPdf::58                      0                       # What write queue length does an incoming req see
system.mem_ctrls.wrQLenPdf::59                      0                       # What write queue length does an incoming req see
system.mem_ctrls.wrQLenPdf::60                      0                       # What write queue length does an incoming req see
system.mem_ctrls.wrQLenPdf::61                      0                       # What write queue length does an incoming req see
system.mem_ctrls.wrQLenPdf::62                      0                       # What write queue length does an incoming req see
system.mem_ctrls.wrQLenPdf::63                      0                       # What write queue length does an incoming req see
system.mem_ctrls.bytesPerActivate::samples        17735                       # Bytes accessed per row activation
system.mem_ctrls.bytesPerActivate::mean     98.690273                       # Bytes accessed per row activation
system.mem_ctrls.bytesPerActivate::gmean    86.074401                       # Bytes accessed per row activation
system.mem_ctrls.bytesPerActivate::stdev    65.819035                       # Bytes accessed per row activation
system.mem_ctrls.bytesPerActivate::64-127        12046     67.92%     67.92% # Bytes accessed per row activation
system.mem_ctrls.bytesPerActivate::128-191         3493     19.70%     87.62% # Bytes accessed per row activation
system.mem_ctrls.bytesPerActivate::192-255         1259      7.10%     94.72% # Bytes accessed per row activation
system.mem_ctrls.bytesPerActivate::256-319          547      3.08%     97.80% # Bytes accessed per row activation
system.mem_ctrls.bytesPerActivate::320-383          185      1.04%     98.84% # Bytes accessed per row activation
system.mem_ctrls.bytesPerActivate::384-447           94      0.53%     99.37% # Bytes accessed per row activation
system.mem_ctrls.bytesPerActivate::448-511           61      0.34%     99.72% # Bytes accessed per row activation
system.mem_ctrls.bytesPerActivate::512-575           25      0.14%     99.86% # Bytes accessed per row activation
system.mem_ctrls.bytesPerActivate::576-639           20      0.11%     99.97% # Bytes accessed per row activation
system.mem_ctrls.bytesPerActivate::640-703            2      0.01%     99.98% # Bytes accessed per row activation
system.mem_ctrls.bytesPerActivate::704-767            1      0.01%     99.99% # Bytes accessed per row activation
system.mem_ctrls.bytesPerActivate::768-831            2      0.01%    100.00% # Bytes accessed per row activation
system.mem_ctrls.bytesPerActivate::total        17735                       # Bytes accessed per row activation
system.mem_ctrls.rdPerTurnAround::samples          783                       # Reads before turning the bus around for writes
system.mem_ctrls.rdPerTurnAround::mean      17.523627                       # Reads before turning the bus around for writes
system.mem_ctrls.rdPerTurnAround::gmean     17.491188                       # Reads before turning the bus around for writes
system.mem_ctrls.rdPerTurnAround::stdev      1.056773                       # Reads before turning the bus around for writes
system.mem_ctrls.rdPerTurnAround::15               11      1.40%      1.40% # Reads before turning the bus around for writes
system.mem_ctrls.rdPerTurnAround::16              194     24.78%     26.18% # Reads before turning the bus around for writes
system.mem_ctrls.rdPerTurnAround::17               48      6.13%     32.31% # Reads before turning the bus around for writes
system.mem_ctrls.rdPerTurnAround::18              447     57.09%     89.40% # Reads before turning the bus around for writes
system.mem_ctrls.rdPerTurnAround::19               73      9.32%     98.72% # Reads before turning the bus around for writes
system.mem_ctrls.rdPerTurnAround::20                7      0.89%     99.62% # Reads before turning the bus around for writes
system.mem_ctrls.rdPerTurnAround::21                3      0.38%    100.00% # Reads before turning the bus around for writes
system.mem_ctrls.rdPerTurnAround::total           783                       # Reads before turning the bus around for writes
system.mem_ctrls.wrPerTurnAround::samples          783                       # Writes before turning the bus around for reads
system.mem_ctrls.wrPerTurnAround::mean      17.404853                       # Writes before turning the bus around for reads
system.mem_ctrls.wrPerTurnAround::gmean     17.377422                       # Writes before turning the bus around for reads
system.mem_ctrls.wrPerTurnAround::stdev      0.965294                       # Writes before turning the bus around for reads
system.mem_ctrls.wrPerTurnAround::16              243     31.03%     31.03% # Writes before turning the bus around for reads
system.mem_ctrls.wrPerTurnAround::17                7      0.89%     31.93% # Writes before turning the bus around for reads
system.mem_ctrls.wrPerTurnAround::18              506     64.62%     96.55% # Writes before turning the bus around for reads
system.mem_ctrls.wrPerTurnAround::19               27      3.45%    100.00% # Writes before turning the bus around for reads
system.mem_ctrls.wrPerTurnAround::total           783                       # Writes before turning the bus around for reads
system.mem_ctrls.totQLat                    410925750                       # Total ticks spent queuing
system.mem_ctrls.totMemAccLat               668175750                       # Total ticks spent from burst creation until serviced by the DRAM
system.mem_ctrls.totBusLat                   68600000                       # Total ticks spent in databus transfers
system.mem_ctrls.avgQLat                     29950.86                       # Average queueing delay per DRAM burst
system.mem_ctrls.avgBusLat                    5000.00                       # Average bus latency per DRAM burst
system.mem_ctrls.avgMemAccLat                48700.86                       # Average memory access latency per DRAM burst
system.mem_ctrls.avgRdBW                        57.51                       # Average DRAM read bandwidth in MiByte/s
system.mem_ctrls.avgWrBW                        57.13                       # Average achieved write bandwidth in MiByte/s
system.mem_ctrls.avgRdBWSys                     57.53                       # Average system read bandwidth in MiByte/s
system.mem_ctrls.avgWrBWSys                     57.12                       # Average system write bandwidth in MiByte/s
system.mem_ctrls.peakBW                      12800.00                       # Theoretical peak bandwidth in MiByte/s
system.mem_ctrls.busUtil                         0.90                       # Data bus utilization in percentage
system.mem_ctrls.busUtilRead                     0.45                       # Data bus utilization in percentage for reads
system.mem_ctrls.busUtilWrite                    0.45                       # Data bus utilization in percentage for writes
system.mem_ctrls.avgRdQLen                       1.06                       # Average read queue length when enqueuing
system.mem_ctrls.avgWrQLen                      24.86                       # Average write queue length when enqueuing
system.mem_ctrls.readRowHits                     4930                       # Number of row buffer hits during reads
system.mem_ctrls.writeRowHits                    4683                       # Number of row buffer hits during writes
system.mem_ctrls.readRowHitRate                 35.93                       # Row buffer hit rate for reads
system.mem_ctrls.writeRowHitRate                34.37                       # Row buffer hit rate for writes
system.mem_ctrls.avgGap                     558286.31                       # Average gap between requests
system.mem_ctrls.pageHitRate                    35.15                       # Row buffer hit rate, read and write combined
system.mem_ctrls_0.actEnergy                 60518640                       # Energy for activate commands per rank (pJ)
system.mem_ctrls_0.preEnergy                 32166420                       # Energy for precharge commands per rank (pJ)
system.mem_ctrls_0.readEnergy                46966920                       # Energy for read commands per rank (pJ)
system.mem_ctrls_0.writeEnergy               34237980                       # Energy for write commands per rank (pJ)
system.mem_ctrls_0.refreshEnergy         1224362880.000000                       # Energy for refresh commands per rank (pJ)
system.mem_ctrls_0.actBackEnergy            926676930                       # Energy for active background per rank (pJ)
system.mem_ctrls_0.preBackEnergy             38838240                       # Energy for precharge background per rank (pJ)
system.mem_ctrls_0.actPowerDownEnergy      4162983030                       # Energy for active power-down per rank (pJ)
system.mem_ctrls_0.prePowerDownEnergy      1347005280                       # Energy for precharge power-down per rank (pJ)
system.mem_ctrls_0.selfRefreshEnergy        175570380                       # Energy for self refresh per rank (pJ)
system.mem_ctrls_0.totalEnergy             8049597060                       # Total energy per rank (pJ)
system.mem_ctrls_0.averagePower            527.242787                       # Core power per rank (mW)
system.mem_ctrls_0.totalIdleTime          13132983250                       # Total Idle time Per DRAM Rank
system.mem_ctrls_0.memoryStateTime::IDLE     43049250                       # Time in different power states
system.mem_ctrls_0.memoryStateTime::REF     518562000                       # Time in different power states
system.mem_ctrls_0.memoryStateTime::SREF    496236750                       # Time in different power states
system.mem_ctrls_0.memoryStateTime::PRE_PDN   3507888750                       # Time in different power states
system.mem_ctrls_0.memoryStateTime::ACT    1572045500                       # Time in different power states
system.mem_ctrls_0.memoryStateTime::ACT_PDN   9129561875                       # Time in different power states
system.mem_ctrls_1.actEnergy                 66109260                       # Energy for activate commands per rank (pJ)
system.mem_ctrls_1.preEnergy                 35137905                       # Energy for precharge commands per rank (pJ)
system.mem_ctrls_1.readEnergy                50993880                       # Energy for read commands per rank (pJ)
system.mem_ctrls_1.writeEnergy               36900180                       # Energy for write commands per rank (pJ)
system.mem_ctrls_1.refreshEnergy         1229280000.000000                       # Energy for refresh commands per rank (pJ)
system.mem_ctrls_1.actBackEnergy            921904890                       # Energy for active background per rank (pJ)
system.mem_ctrls_1.preBackEnergy             34614240                       # Energy for precharge background per rank (pJ)
system.mem_ctrls_1.actPowerDownEnergy      4341512730                       # Energy for active power-down per rank (pJ)
system.mem_ctrls_1.prePowerDownEnergy      1298491200                       # Energy for precharge power-down per rank (pJ)
system.mem_ctrls_1.selfRefreshEnergy        103274280                       # Energy for self refresh per rank (pJ)
system.mem_ctrls_1.totalEnergy             8118799725                       # Total energy per rank (pJ)
system.mem_ctrls_1.averagePower            531.775511                       # Core power per rank (mW)
system.mem_ctrls_1.totalIdleTime          13153176250                       # Total Idle time Per DRAM Rank
system.mem_ctrls_1.memoryStateTime::IDLE     31642500                       # Time in different power states
system.mem_ctrls_1.memoryStateTime::REF     520498000                       # Time in different power states
system.mem_ctrls_1.memoryStateTime::SREF    251836000                       # Time in different power states
system.mem_ctrls_1.memoryStateTime::PRE_PDN   3381481250                       # Time in different power states
system.mem_ctrls_1.memoryStateTime::ACT    1561012250                       # Time in different power states
system.mem_ctrls_1.memoryStateTime::ACT_PDN   9520874125                       # Time in different power states
system.pwrStateResidencyTicks::UNDEFINED  15267344125                       # Cumulative time (in ticks) in various power states
system.cpu0.branchPred.lookups               13391569                       # Number of BP lookups
system.cpu0.branchPred.condPredicted         13391569                       # Number of conditional branches predicted
system.cpu0.branchPred.condIncorrect          1413251                       # Number of conditional branches incorrect
system.cpu0.branchPred.BTBLookups            11266191                       # Number of BTB lookups
system.cpu0.branchPred.BTBHits                      0                       # Number of BTB hits
system.cpu0.branchPred.BTBCorrect                   0                       # Number of correct BTB predictions (this stat may not work properly.
system.cpu0.branchPred.BTBHitPct             0.000000                       # BTB Hit Percentage
system.cpu0.branchPred.usedRAS                1065571                       # Number of times the RAS was used to get a target.
system.cpu0.branchPred.RASInCorrect            191836                       # Number of incorrect RAS predictions.
system.cpu0.branchPred.indirectLookups       11266191                       # Number of indirect predictor lookups.
system.cpu0.branchPred.indirectHits           2647303                       # Number of indirect target hits.
system.cpu0.branchPred.indirectMisses         8618888                       # Number of indirect misses.
system.cpu0.branchPredindirectMispredicted       947388                       # Number of mispredicted indirect branches.
system.cpu_voltage_domain.voltage                   1                       # Voltage in Volts
system.cpu_clk_domain.clock                       500                       # Clock period in ticks
system.cpu0.dtb.walker.pwrStateResidencyTicks::UNDEFINED  15267344125                       # Cumulative time (in ticks) in various power states
system.cpu0.dtb.rdAccesses                    7032317                       # TLB accesses on read requests
system.cpu0.dtb.wrAccesses                    2294599                       # TLB accesses on write requests
system.cpu0.dtb.rdMisses                        84694                       # TLB misses on read requests
system.cpu0.dtb.wrMisses                        18460                       # TLB misses on write requests
system.cpu0.apic_clk_domain.clock                8000                       # Clock period in ticks
system.cpu0.interrupts.pwrStateResidencyTicks::UNDEFINED  15267344125                       # Cumulative time (in ticks) in various power states
system.cpu0.itb.walker.pwrStateResidencyTicks::UNDEFINED  15267344125                       # Cumulative time (in ticks) in various power states
system.cpu0.itb.rdAccesses                          0                       # TLB accesses on read requests
system.cpu0.itb.wrAccesses                    6594528                       # TLB accesses on write requests
system.cpu0.itb.rdMisses                            0                       # TLB misses on read requests
system.cpu0.itb.wrMisses                         2841                       # TLB misses on write requests
system.cpu0.workload.numSyscalls                   19                       # Number of system calls
system.cpu0.pwrStateResidencyTicks::ON    15267344125                       # Cumulative time (in ticks) in various power states
system.cpu0.numCycles                        30534688                       # number of cpu cycles simulated
system.cpu0.numWorkItemsStarted                     0                       # number of work items this cpu started
system.cpu0.numWorkItemsCompleted                   0                       # number of work items this cpu completed
system.cpu0.fetch.icacheStallCycles           7512153                       # Number of cycles fetch is stalled on an Icache miss
system.cpu0.fetch.Insts                      56947485                       # Number of instructions fetch has processed
system.cpu0.fetch.Branches                   13391569                       # Number of branches that fetch encountered
system.cpu0.fetch.predictedBranches           3712874                       # Number of branches that fetch has predicted taken
system.cpu0.fetch.Cycles                     21582923                       # Number of cycles fetch has run and was not squashing or blocked
system.cpu0.fetch.SquashCycles                2828838                       # Number of cycles fetch has spent squashing
system.cpu0.fetch.MiscStallCycles                 989                       # Number of cycles fetch has spent waiting on interrupts, or bad addresses, or out of MSHRs
system.cpu0.fetch.PendingTrapStallCycles        16010                       # Number of stall cycles due to pending traps
system.cpu0.fetch.CacheLines                  6591687                       # Number of cache lines fetched
system.cpu0.fetch.IcacheSquashes               328237                       # Number of outstanding Icache misses that were squashed
system.cpu0.fetch.rateDist::samples          30526494                       # Number of instructions fetched each cycle (Total)
system.cpu0.fetch.rateDist::mean             4.079436                       # Number of instructions fetched each cycle (Total)
system.cpu0.fetch.rateDist::stdev            3.668114                       # Number of instructions fetched each cycle (Total)
system.cpu0.fetch.rateDist::underflows              0      0.00%      0.00% # Number of instructions fetched each cycle (Total)
system.cpu0.fetch.rateDist::0                11929423     39.08%     39.08% # Number of instructions fetched each cycle (Total)
system.cpu0.fetch.rateDist::1                  533351      1.75%     40.83% # Number of instructions fetched each cycle (Total)
system.cpu0.fetch.rateDist::2                  884721      2.90%     43.72% # Number of instructions fetched each cycle (Total)
system.cpu0.fetch.rateDist::3                 1348211      4.42%     48.14% # Number of instructions fetched each cycle (Total)
system.cpu0.fetch.rateDist::4                  599866      1.97%     50.11% # Number of instructions fetched each cycle (Total)
system.cpu0.fetch.rateDist::5                 1183796      3.88%     53.98% # Number of instructions fetched each cycle (Total)
system.cpu0.fetch.rateDist::6                 1008293      3.30%     57.29% # Number of instructions fetched each cycle (Total)
system.cpu0.fetch.rateDist::7                  495419      1.62%     58.91% # Number of instructions fetched each cycle (Total)
system.cpu0.fetch.rateDist::8                12543414     41.09%    100.00% # Number of instructions fetched each cycle (Total)
system.cpu0.fetch.rateDist::overflows               0      0.00%    100.00% # Number of instructions fetched each cycle (Total)
system.cpu0.fetch.rateDist::min_value               0                       # Number of instructions fetched each cycle (Total)
system.cpu0.fetch.rateDist::max_value               8                       # Number of instructions fetched each cycle (Total)
system.cpu0.fetch.rateDist::total            30526494                       # Number of instructions fetched each cycle (Total)
system.cpu0.fetch.branchRate                 0.438569                       # Number of branch fetches per cycle
system.cpu0.fetch.rate                       1.865010                       # Number of inst fetches per cycle
system.cpu0.decode.IdleCycles                 5682204                       # Number of cycles decode is idle
system.cpu0.decode.BlockedCycles              8073277                       # Number of cycles decode is blocked
system.cpu0.decode.RunCycles                 13922327                       # Number of cycles decode is running
system.cpu0.decode.UnblockCycles              1434267                       # Number of cycles decode is unblocking
system.cpu0.decode.SquashCycles               1414419                       # Number of cycles decode is squashing
system.cpu0.decode.DecodedInsts             111537303                       # Number of instructions handled by decode
system.cpu0.rename.SquashCycles               1414419                       # Number of cycles rename is squashing
system.cpu0.rename.IdleCycles                 6766416                       # Number of cycles rename is idle
system.cpu0.rename.BlockCycles                6741397                       # Number of cycles rename is blocking
system.cpu0.rename.serializeStallCycles        245993                       # count of cycles rename stalled for serializing inst
system.cpu0.rename.RunCycles                 14050992                       # Number of cycles rename is running
system.cpu0.rename.UnblockCycles              1307277                       # Number of cycles rename is unblocking
system.cpu0.rename.RenamedInsts             104212453                       # Number of instructions processed by rename
system.cpu0.rename.ROBFullEvents                26117                       # Number of times rename has blocked due to ROB full
system.cpu0.rename.IQFullEvents                675914                       # Number of times rename has blocked due to IQ full
system.cpu0.rename.LQFullEvents                   140                       # Number of times rename has blocked due to LQ full
system.cpu0.rename.SQFullEvents                397970                       # Number of times rename has blocked due to SQ full
system.cpu0.rename.RenamedOperands          117099400                       # Number of destination operands rename has renamed
system.cpu0.rename.RenameLookups            257704706                       # Number of register rename lookups that rename has made
system.cpu0.rename.int_rename_lookups       140851870                       # Number of integer rename lookups
system.cpu0.rename.fp_rename_lookups         20499724                       # Number of floating rename lookups
system.cpu0.rename.CommittedMaps             47888214                       # Number of HB maps that are committed
system.cpu0.rename.UndoneMaps                69211239                       # Number of HB maps that are undone due to squashing
system.cpu0.rename.serializingInsts             32954                       # count of serializing insts renamed
system.cpu0.rename.tempSerializingInsts         35262                       # count of temporary serializing insts renamed
system.cpu0.rename.skidInsts                  3158876                       # count of insts added to the skid buffer
system.cpu0.memDep0.insertedLoads             9572160                       # Number of loads inserted to the mem dependence unit.
system.cpu0.memDep0.insertedStores            3202224                       # Number of stores inserted to the mem dependence unit.
system.cpu0.memDep0.conflictingLoads           152119                       # Number of conflicting loads.
system.cpu0.memDep0.conflictingStores          162899                       # Number of conflicting stores.
system.cpu0.iq.iqInstsAdded                  90166111                       # Number of instructions added to the IQ (excludes non-spec)
system.cpu0.iq.iqNonSpecInstsAdded             211762                       # Number of non-speculative instructions added to the IQ
system.cpu0.iq.iqInstsIssued                 71478855                       # Number of instructions issued
system.cpu0.iq.iqSquashedInstsIssued           680860                       # Number of squashed instructions issued
system.cpu0.iq.iqSquashedInstsExamined       49109642                       # Number of squashed instructions iterated over during squash; mainly for profiling
system.cpu0.iq.iqSquashedOperandsExamined     70720088                       # Number of squashed operands that are examined and possibly removed from graph
system.cpu0.iq.iqSquashedNonSpecRemoved        211653                       # Number of squashed non-spec instructions that were removed
system.cpu0.iq.issued_per_cycle::samples     30526494                       # Number of insts issued each cycle
system.cpu0.iq.issued_per_cycle::mean        2.341535                       # Number of insts issued each cycle
system.cpu0.iq.issued_per_cycle::stdev       2.604085                       # Number of insts issued each cycle
system.cpu0.iq.issued_per_cycle::underflows            0      0.00%      0.00% # Number of insts issued each cycle
system.cpu0.iq.issued_per_cycle::0           13295576     43.55%     43.55% # Number of insts issued each cycle
system.cpu0.iq.issued_per_cycle::1            2206565      7.23%     50.78% # Number of insts issued each cycle
system.cpu0.iq.issued_per_cycle::2            2702250      8.85%     59.63% # Number of insts issued each cycle
system.cpu0.iq.issued_per_cycle::3            2312167      7.57%     67.21% # Number of insts issued each cycle
system.cpu0.iq.issued_per_cycle::4            2357175      7.72%     74.93% # Number of insts issued each cycle
system.cpu0.iq.issued_per_cycle::5            2256386      7.39%     82.32% # Number of insts issued each cycle
system.cpu0.iq.issued_per_cycle::6            2657935      8.71%     91.03% # Number of insts issued each cycle
system.cpu0.iq.issued_per_cycle::7            1634471      5.35%     96.38% # Number of insts issued each cycle
system.cpu0.iq.issued_per_cycle::8            1103969      3.62%    100.00% # Number of insts issued each cycle
system.cpu0.iq.issued_per_cycle::overflows            0      0.00%    100.00% # Number of insts issued each cycle
system.cpu0.iq.issued_per_cycle::min_value            0                       # Number of insts issued each cycle
system.cpu0.iq.issued_per_cycle::max_value            8                       # Number of insts issued each cycle
system.cpu0.iq.issued_per_cycle::total       30526494                       # Number of insts issued each cycle
system.cpu0.iq.fu_full::No_OpClass                  0      0.00%      0.00% # attempts to use FU when none available
system.cpu0.iq.fu_full::IntAlu                1425521     92.37%     92.37% # attempts to use FU when none available
system.cpu0.iq.fu_full::IntMult                     0      0.00%     92.37% # attempts to use FU when none available
system.cpu0.iq.fu_full::IntDiv                      0      0.00%     92.37% # attempts to use FU when none available
system.cpu0.iq.fu_full::FloatAdd                84748      5.49%     97.86% # attempts to use FU when none available
system.cpu0.iq.fu_full::FloatCmp                    0      0.00%     97.86% # attempts to use FU when none available
system.cpu0.iq.fu_full::FloatCvt                    0      0.00%     97.86% # attempts to use FU when none available
system.cpu0.iq.fu_full::FloatMult                   0      0.00%     97.86% # attempts to use FU when none available
system.cpu0.iq.fu_full::FloatMultAcc                0      0.00%     97.86% # attempts to use FU when none available
system.cpu0.iq.fu_full::FloatDiv                    0      0.00%     97.86% # attempts to use FU when none available
system.cpu0.iq.fu_full::FloatMisc                   0      0.00%     97.86% # attempts to use FU when none available
system.cpu0.iq.fu_full::FloatSqrt                   0      0.00%     97.86% # attempts to use FU when none available
system.cpu0.iq.fu_full::SimdAdd                     0      0.00%     97.86% # attempts to use FU when none available
system.cpu0.iq.fu_full::SimdAddAcc                  0      0.00%     97.86% # attempts to use FU when none available
system.cpu0.iq.fu_full::SimdAlu                     0      0.00%     97.86% # attempts to use FU when none available
system.cpu0.iq.fu_full::SimdCmp                     0      0.00%     97.86% # attempts to use FU when none available
system.cpu0.iq.fu_full::SimdCvt                     0      0.00%     97.86% # attempts to use FU when none available
system.cpu0.iq.fu_full::SimdMisc                    0      0.00%     97.86% # attempts to use FU when none available
system.cpu0.iq.fu_full::SimdMult                    0      0.00%     97.86% # attempts to use FU when none available
system.cpu0.iq.fu_full::SimdMultAcc                 0      0.00%     97.86% # attempts to use FU when none available
system.cpu0.iq.fu_full::SimdShift                   0      0.00%     97.86% # attempts to use FU when none available
system.cpu0.iq.fu_full::SimdShiftAcc                0      0.00%     97.86% # attempts to use FU when none available
system.cpu0.iq.fu_full::SimdSqrt                    0      0.00%     97.86% # attempts to use FU when none available
system.cpu0.iq.fu_full::SimdFloatAdd                0      0.00%     97.86% # attempts to use FU when none available
system.cpu0.iq.fu_full::SimdFloatAlu                0      0.00%     97.86% # attempts to use FU when none available
system.cpu0.iq.fu_full::SimdFloatCmp                0      0.00%     97.86% # attempts to use FU when none available
system.cpu0.iq.fu_full::SimdFloatCvt                0      0.00%     97.86% # attempts to use FU when none available
system.cpu0.iq.fu_full::SimdFloatDiv                0      0.00%     97.86% # attempts to use FU when none available
system.cpu0.iq.fu_full::SimdFloatMisc               0      0.00%     97.86% # attempts to use FU when none available
system.cpu0.iq.fu_full::SimdFloatMult               0      0.00%     97.86% # attempts to use FU when none available
system.cpu0.iq.fu_full::SimdFloatMultAcc            0      0.00%     97.86% # attempts to use FU when none available
system.cpu0.iq.fu_full::SimdFloatSqrt               0      0.00%     97.86% # attempts to use FU when none available
system.cpu0.iq.fu_full::MemRead                  4049      0.26%     98.13% # attempts to use FU when none available
system.cpu0.iq.fu_full::MemWrite                 2200      0.14%     98.27% # attempts to use FU when none available
system.cpu0.iq.fu_full::FloatMemRead            26436      1.71%     99.98% # attempts to use FU when none available
system.cpu0.iq.fu_full::FloatMemWrite             267      0.02%    100.00% # attempts to use FU when none available
system.cpu0.iq.fu_full::IprAccess                   0      0.00%    100.00% # attempts to use FU when none available
system.cpu0.iq.fu_full::InstPrefetch                0      0.00%    100.00% # attempts to use FU when none available
system.cpu0.iq.FU_type_0::No_OpClass          1965982      2.75%      2.75% # Type of FU issued
system.cpu0.iq.FU_type_0::IntAlu             53980483     75.52%     78.27% # Type of FU issued
system.cpu0.iq.FU_type_0::IntMult                2771      0.00%     78.27% # Type of FU issued
system.cpu0.iq.FU_type_0::IntDiv                71253      0.10%     78.37% # Type of FU issued
system.cpu0.iq.FU_type_0::FloatAdd            5282747      7.39%     85.76% # Type of FU issued
system.cpu0.iq.FU_type_0::FloatCmp                  0      0.00%     85.76% # Type of FU issued
system.cpu0.iq.FU_type_0::FloatCvt                  0      0.00%     85.76% # Type of FU issued
system.cpu0.iq.FU_type_0::FloatMult                 0      0.00%     85.76% # Type of FU issued
system.cpu0.iq.FU_type_0::FloatMultAcc              0      0.00%     85.76% # Type of FU issued
system.cpu0.iq.FU_type_0::FloatDiv                  0      0.00%     85.76% # Type of FU issued
system.cpu0.iq.FU_type_0::FloatMisc                 0      0.00%     85.76% # Type of FU issued
system.cpu0.iq.FU_type_0::FloatSqrt                 0      0.00%     85.76% # Type of FU issued
system.cpu0.iq.FU_type_0::SimdAdd                   0      0.00%     85.76% # Type of FU issued
system.cpu0.iq.FU_type_0::SimdAddAcc                0      0.00%     85.76% # Type of FU issued
system.cpu0.iq.FU_type_0::SimdAlu                   0      0.00%     85.76% # Type of FU issued
system.cpu0.iq.FU_type_0::SimdCmp                   0      0.00%     85.76% # Type of FU issued
system.cpu0.iq.FU_type_0::SimdCvt                   0      0.00%     85.76% # Type of FU issued
system.cpu0.iq.FU_type_0::SimdMisc                  0      0.00%     85.76% # Type of FU issued
system.cpu0.iq.FU_type_0::SimdMult                  0      0.00%     85.76% # Type of FU issued
system.cpu0.iq.FU_type_0::SimdMultAcc               0      0.00%     85.76% # Type of FU issued
system.cpu0.iq.FU_type_0::SimdShift                 0      0.00%     85.76% # Type of FU issued
system.cpu0.iq.FU_type_0::SimdShiftAcc              0      0.00%     85.76% # Type of FU issued
system.cpu0.iq.FU_type_0::SimdSqrt                  0      0.00%     85.76% # Type of FU issued
system.cpu0.iq.FU_type_0::SimdFloatAdd              0      0.00%     85.76% # Type of FU issued
system.cpu0.iq.FU_type_0::SimdFloatAlu              0      0.00%     85.76% # Type of FU issued
system.cpu0.iq.FU_type_0::SimdFloatCmp              0      0.00%     85.76% # Type of FU issued
system.cpu0.iq.FU_type_0::SimdFloatCvt              0      0.00%     85.76% # Type of FU issued
system.cpu0.iq.FU_type_0::SimdFloatDiv              0      0.00%     85.76% # Type of FU issued
system.cpu0.iq.FU_type_0::SimdFloatMisc             0      0.00%     85.76% # Type of FU issued
system.cpu0.iq.FU_type_0::SimdFloatMult             0      0.00%     85.76% # Type of FU issued
system.cpu0.iq.FU_type_0::SimdFloatMultAcc            0      0.00%     85.76% # Type of FU issued
system.cpu0.iq.FU_type_0::SimdFloatSqrt             0      0.00%     85.76% # Type of FU issued
system.cpu0.iq.FU_type_0::MemRead             5087237      7.12%     92.88% # Type of FU issued
system.cpu0.iq.FU_type_0::MemWrite            2501160      3.50%     96.38% # Type of FU issued
system.cpu0.iq.FU_type_0::FloatMemRead        2586408      3.62%    100.00% # Type of FU issued
system.cpu0.iq.FU_type_0::FloatMemWrite           814      0.00%    100.00% # Type of FU issued
system.cpu0.iq.FU_type_0::IprAccess                 0      0.00%    100.00% # Type of FU issued
system.cpu0.iq.FU_type_0::InstPrefetch              0      0.00%    100.00% # Type of FU issued
system.cpu0.iq.FU_type_0::total              71478855                       # Type of FU issued
system.cpu0.iq.rate                          2.340907                       # Inst issue rate
system.cpu0.iq.fu_busy_cnt                    1543221                       # FU busy when requested
system.cpu0.iq.fu_busy_rate                  0.021590                       # FU busy rate (busy events/executed inst)
system.cpu0.iq.int_inst_queue_reads         159530335                       # Number of integer instruction queue reads
system.cpu0.iq.int_inst_queue_writes        120250704                       # Number of integer instruction queue writes
system.cpu0.iq.int_inst_queue_wakeup_accesses     59924840                       # Number of integer instruction queue wakeup accesses
system.cpu0.iq.fp_inst_queue_reads           16177943                       # Number of floating instruction queue reads
system.cpu0.iq.fp_inst_queue_writes          19237055                       # Number of floating instruction queue writes
system.cpu0.iq.fp_inst_queue_wakeup_accesses      7147692                       # Number of floating instruction queue wakeup accesses
system.cpu0.iq.vec_inst_queue_reads                 0                       # Number of vector instruction queue reads
system.cpu0.iq.vec_inst_queue_writes                0                       # Number of vector instruction queue writes
system.cpu0.iq.vec_inst_queue_wakeup_accesses            0                       # Number of vector instruction queue wakeup accesses
system.cpu0.iq.int_alu_accesses              62960544                       # Number of integer alu accesses
system.cpu0.iq.fp_alu_accesses                8095550                       # Number of floating point alu accesses
system.cpu0.iq.vec_alu_accesses                     0                       # Number of vector alu accesses
system.cpu0.iew.lsq.thread0.forwLoads          196281                       # Number of loads that had data forwarded from stores
system.cpu0.iew.lsq.thread0.invAddrLoads            0                       # Number of loads ignored due to an invalid address
system.cpu0.iew.lsq.thread0.squashedLoads      5918192                       # Number of loads squashed
system.cpu0.iew.lsq.thread0.ignoredResponses         3473                       # Number of memory responses ignored because the instruction is squashed
system.cpu0.iew.lsq.thread0.memOrderViolation          272                       # Number of memory ordering violations
system.cpu0.iew.lsq.thread0.squashedStores      1568261                       # Number of stores squashed
system.cpu0.iew.lsq.thread0.invAddrSwpfs            0                       # Number of software prefetches ignored due to an invalid address
system.cpu0.iew.lsq.thread0.blockedLoads            0                       # Number of blocked loads due to partial load-store forwarding
system.cpu0.iew.lsq.thread0.rescheduledLoads         3213                       # Number of loads that were rescheduled
system.cpu0.iew.lsq.thread0.cacheBlocked           10                       # Number of times an access to memory failed due to the cache being blocked
system.cpu0.iew.iewIdleCycles                       0                       # Number of cycles IEW is idle
system.cpu0.iew.iewSquashCycles               1414419                       # Number of cycles IEW is squashing
system.cpu0.iew.iewBlockCycles                6213964                       # Number of cycles IEW is blocking
system.cpu0.iew.iewUnblockCycles                 7132                       # Number of cycles IEW is unblocking
system.cpu0.iew.iewDispatchedInsts           90377873                       # Number of instructions dispatched to IQ
system.cpu0.iew.iewDispSquashedInsts            49434                       # Number of squashed instructions skipped by dispatch
system.cpu0.iew.iewDispLoadInsts              9572160                       # Number of dispatched load instructions
system.cpu0.iew.iewDispStoreInsts             3202224                       # Number of dispatched store instructions
system.cpu0.iew.iewDispNonSpecInsts             88058                       # Number of dispatched non-speculative instructions
system.cpu0.iew.iewIQFullEvents                  3827                       # Number of times the IQ has become full, causing a stall
system.cpu0.iew.iewLSQFullEvents                 2236                       # Number of times the LSQ has become full, causing a stall
system.cpu0.iew.memOrderViolationEvents           272                       # Number of memory order violations
system.cpu0.iew.predictedTakenIncorrect        419528                       # Number of branches that were predicted taken incorrectly
system.cpu0.iew.predictedNotTakenIncorrect      1355251                       # Number of branches that were predicted not taken incorrectly
system.cpu0.iew.branchMispredicts             1774779                       # Number of branch mispredicts detected at execute
system.cpu0.iew.iewExecutedInsts             68307133                       # Number of executed instructions
system.cpu0.iew.iewExecLoadInsts              6994289                       # Number of load instructions executed
system.cpu0.iew.iewExecSquashedInsts          3171715                       # Number of squashed instructions skipped in execute
system.cpu0.iew.exec_swp                            0                       # number of swp insts executed
system.cpu0.iew.exec_nop                            0                       # number of nop insts executed
system.cpu0.iew.exec_refs                     9288287                       # number of memory reference insts executed
system.cpu0.iew.exec_branches                 6235055                       # Number of branches executed
system.cpu0.iew.exec_stores                   2293998                       # Number of stores executed
system.cpu0.iew.exec_rate                    2.237034                       # Inst execution rate
system.cpu0.iew.wb_sent                      67651550                       # cumulative count of insts sent to commit
system.cpu0.iew.wb_count                     67072532                       # cumulative count of insts written-back
system.cpu0.iew.wb_producers                 49585379                       # num instructions producing a value
system.cpu0.iew.wb_consumers                 87999338                       # num instructions consuming a value
system.cpu0.iew.wb_rate                      2.196601                       # insts written-back per cycle
system.cpu0.iew.wb_fanout                    0.563474                       # average fanout of values written-back
system.cpu0.commit.commitSquashedInsts       49109783                       # The number of squashed insts skipped by commit
system.cpu0.commit.commitNonSpecStalls            109                       # The number of times commit has been forced to stall to communicate backwards
system.cpu0.commit.branchMispredicts          1414263                       # The number of times a branch was mispredicted
system.cpu0.commit.committed_per_cycle::samples     23074520                       # Number of insts commited each cycle
system.cpu0.commit.committed_per_cycle::mean     1.788479                       # Number of insts commited each cycle
system.cpu0.commit.committed_per_cycle::stdev     2.403937                       # Number of insts commited each cycle
system.cpu0.commit.committed_per_cycle::underflows            0      0.00%      0.00% # Number of insts commited each cycle
system.cpu0.commit.committed_per_cycle::0     10650247     46.16%     46.16% # Number of insts commited each cycle
system.cpu0.commit.committed_per_cycle::1      3030848     13.14%     59.29% # Number of insts commited each cycle
system.cpu0.commit.committed_per_cycle::2      3431413     14.87%     74.16% # Number of insts commited each cycle
system.cpu0.commit.committed_per_cycle::3      1851473      8.02%     82.19% # Number of insts commited each cycle
system.cpu0.commit.committed_per_cycle::4       952402      4.13%     86.31% # Number of insts commited each cycle
system.cpu0.commit.committed_per_cycle::5       755079      3.27%     89.59% # Number of insts commited each cycle
system.cpu0.commit.committed_per_cycle::6       330578      1.43%     91.02% # Number of insts commited each cycle
system.cpu0.commit.committed_per_cycle::7       328106      1.42%     92.44% # Number of insts commited each cycle
system.cpu0.commit.committed_per_cycle::8      1744374      7.56%    100.00% # Number of insts commited each cycle
system.cpu0.commit.committed_per_cycle::overflows            0      0.00%    100.00% # Number of insts commited each cycle
system.cpu0.commit.committed_per_cycle::min_value            0                       # Number of insts commited each cycle
system.cpu0.commit.committed_per_cycle::max_value            8                       # Number of insts commited each cycle
system.cpu0.commit.committed_per_cycle::total     23074520                       # Number of insts commited each cycle
system.cpu0.commit.committedInsts            18767287                       # Number of instructions committed
system.cpu0.commit.committedOps              41268298                       # Number of ops (including micro ops) committed
system.cpu0.commit.swp_count                        0                       # Number of s/w prefetches committed
system.cpu0.commit.refs                       5287936                       # Number of memory references committed
system.cpu0.commit.loads                      3653973                       # Number of loads committed
system.cpu0.commit.membars                         60                       # Number of memory barriers committed
system.cpu0.commit.branches                   4303194                       # Number of branches committed
system.cpu0.commit.vec_insts                        0                       # Number of committed Vector instructions.
system.cpu0.commit.fp_insts                   3140223                       # Number of committed floating point instructions.
system.cpu0.commit.int_insts                 38546982                       # Number of committed integer instructions.
system.cpu0.commit.function_calls              365369                       # Number of function calls committed.
system.cpu0.commit.op_class_0::No_OpClass       729423      1.77%      1.77% # Class of committed instruction
system.cpu0.commit.op_class_0::IntAlu        32828849     79.55%     81.32% # Class of committed instruction
system.cpu0.commit.op_class_0::IntMult           1436      0.00%     81.32% # Class of committed instruction
system.cpu0.commit.op_class_0::IntDiv           46196      0.11%     81.43% # Class of committed instruction
system.cpu0.commit.op_class_0::FloatAdd       2374458      5.75%     87.19% # Class of committed instruction
system.cpu0.commit.op_class_0::FloatCmp             0      0.00%     87.19% # Class of committed instruction
system.cpu0.commit.op_class_0::FloatCvt             0      0.00%     87.19% # Class of committed instruction
system.cpu0.commit.op_class_0::FloatMult            0      0.00%     87.19% # Class of committed instruction
system.cpu0.commit.op_class_0::FloatMultAcc            0      0.00%     87.19% # Class of committed instruction
system.cpu0.commit.op_class_0::FloatDiv             0      0.00%     87.19% # Class of committed instruction
system.cpu0.commit.op_class_0::FloatMisc            0      0.00%     87.19% # Class of committed instruction
system.cpu0.commit.op_class_0::FloatSqrt            0      0.00%     87.19% # Class of committed instruction
system.cpu0.commit.op_class_0::SimdAdd              0      0.00%     87.19% # Class of committed instruction
system.cpu0.commit.op_class_0::SimdAddAcc            0      0.00%     87.19% # Class of committed instruction
system.cpu0.commit.op_class_0::SimdAlu              0      0.00%     87.19% # Class of committed instruction
system.cpu0.commit.op_class_0::SimdCmp              0      0.00%     87.19% # Class of committed instruction
system.cpu0.commit.op_class_0::SimdCvt              0      0.00%     87.19% # Class of committed instruction
system.cpu0.commit.op_class_0::SimdMisc             0      0.00%     87.19% # Class of committed instruction
system.cpu0.commit.op_class_0::SimdMult             0      0.00%     87.19% # Class of committed instruction
system.cpu0.commit.op_class_0::SimdMultAcc            0      0.00%     87.19% # Class of committed instruction
system.cpu0.commit.op_class_0::SimdShift            0      0.00%     87.19% # Class of committed instruction
system.cpu0.commit.op_class_0::SimdShiftAcc            0      0.00%     87.19% # Class of committed instruction
system.cpu0.commit.op_class_0::SimdSqrt             0      0.00%     87.19% # Class of committed instruction
system.cpu0.commit.op_class_0::SimdFloatAdd            0      0.00%     87.19% # Class of committed instruction
system.cpu0.commit.op_class_0::SimdFloatAlu            0      0.00%     87.19% # Class of committed instruction
system.cpu0.commit.op_class_0::SimdFloatCmp            0      0.00%     87.19% # Class of committed instruction
system.cpu0.commit.op_class_0::SimdFloatCvt            0      0.00%     87.19% # Class of committed instruction
system.cpu0.commit.op_class_0::SimdFloatDiv            0      0.00%     87.19% # Class of committed instruction
system.cpu0.commit.op_class_0::SimdFloatMisc            0      0.00%     87.19% # Class of committed instruction
system.cpu0.commit.op_class_0::SimdFloatMult            0      0.00%     87.19% # Class of committed instruction
system.cpu0.commit.op_class_0::SimdFloatMultAcc            0      0.00%     87.19% # Class of committed instruction
system.cpu0.commit.op_class_0::SimdFloatSqrt            0      0.00%     87.19% # Class of committed instruction
system.cpu0.commit.op_class_0::MemRead        2898743      7.02%     94.21% # Class of committed instruction
system.cpu0.commit.op_class_0::MemWrite       1633963      3.96%     98.17% # Class of committed instruction
system.cpu0.commit.op_class_0::FloatMemRead       755230      1.83%    100.00% # Class of committed instruction
system.cpu0.commit.op_class_0::FloatMemWrite            0      0.00%    100.00% # Class of committed instruction
system.cpu0.commit.op_class_0::IprAccess            0      0.00%    100.00% # Class of committed instruction
system.cpu0.commit.op_class_0::InstPrefetch            0      0.00%    100.00% # Class of committed instruction
system.cpu0.commit.op_class_0::total         41268298                       # Class of committed instruction
system.cpu0.commit.bw_lim_events              1744374                       # number cycles where commit BW limit reached
system.cpu0.rob.rob_reads                   111708227                       # The number of ROB reads
system.cpu0.rob.rob_writes                  188353231                       # The number of ROB writes
system.cpu0.timesIdled                           2020                       # Number of times that the entire CPU went into an idle state and unscheduled itself
system.cpu0.idleCycles                           8194                       # Total number of cycles that the CPU has spent unscheduled due to idling
system.cpu0.committedInsts                   18767287                       # Number of Instructions Simulated
system.cpu0.committedOps                     41268298                       # Number of Ops (including micro ops) Simulated
system.cpu0.cpi                              1.627017                       # CPI: Cycles Per Instruction
system.cpu0.cpi_total                        1.627017                       # CPI: Total CPI of All Threads
system.cpu0.ipc                              0.614622                       # IPC: Instructions Per Cycle
system.cpu0.ipc_total                        0.614622                       # IPC: Total IPC of All Threads
system.cpu0.int_regfile_reads                86788163                       # number of integer regfile reads
system.cpu0.int_regfile_writes               51216895                       # number of integer regfile writes
system.cpu0.fp_regfile_reads                 11257411                       # number of floating regfile reads
system.cpu0.fp_regfile_writes                 6768912                       # number of floating regfile writes
system.cpu0.cc_regfile_reads                 35887549                       # number of cc regfile reads
system.cpu0.cc_regfile_writes                17902477                       # number of cc regfile writes
system.cpu0.misc_regfile_reads               21957553                       # number of misc regfile reads
system.cpu0.dcache.tags.pwrStateResidencyTicks::UNDEFINED  15267344125                       # Cumulative time (in ticks) in various power states
system.cpu0.dcache.tags.replacements            20951                       # number of replacements
system.cpu0.dcache.tags.tagsinuse                 512                       # Cycle average of tags in use
system.cpu0.dcache.tags.total_refs           22434026                       # Total number of references to valid blocks.
system.cpu0.dcache.tags.sampled_refs            20951                       # Sample count of references to valid blocks.
system.cpu0.dcache.tags.avg_refs          1070.785452                       # Average number of references to valid blocks.
system.cpu0.dcache.tags.warmup_cycle                0                       # Cycle when the warmup percentage was hit.
system.cpu0.dcache.tags.occ_blocks::cpu0.data          512                       # Average occupied blocks per requestor
system.cpu0.dcache.tags.occ_percent::cpu0.data            1                       # Average percentage of cache occupancy
system.cpu0.dcache.tags.occ_percent::total            1                       # Average percentage of cache occupancy
system.cpu0.dcache.tags.occ_task_id_blocks::1024          512                       # Occupied blocks per task id
system.cpu0.dcache.tags.age_task_id_blocks_1024::0           19                       # Occupied blocks per task id
system.cpu0.dcache.tags.age_task_id_blocks_1024::1          137                       # Occupied blocks per task id
system.cpu0.dcache.tags.age_task_id_blocks_1024::2          299                       # Occupied blocks per task id
system.cpu0.dcache.tags.age_task_id_blocks_1024::3            4                       # Occupied blocks per task id
system.cpu0.dcache.tags.age_task_id_blocks_1024::4           53                       # Occupied blocks per task id
system.cpu0.dcache.tags.occ_task_id_percent::1024            1                       # Percentage of cache occupancy per task id
system.cpu0.dcache.tags.tag_accesses         33576383                       # Number of tag accesses
system.cpu0.dcache.tags.data_accesses        33576383                       # Number of data accesses
system.cpu0.dcache.pwrStateResidencyTicks::UNDEFINED  15267344125                       # Cumulative time (in ticks) in various power states
system.cpu0.dcache.ReadReq_hits::cpu0.data      6725548                       # number of ReadReq hits
system.cpu0.dcache.ReadReq_hits::total        6725548                       # number of ReadReq hits
system.cpu0.dcache.WriteReq_hits::cpu0.data      1624310                       # number of WriteReq hits
system.cpu0.dcache.WriteReq_hits::total       1624310                       # number of WriteReq hits
system.cpu0.dcache.demand_hits::cpu0.data      8349858                       # number of demand (read+write) hits
system.cpu0.dcache.demand_hits::total         8349858                       # number of demand (read+write) hits
system.cpu0.dcache.overall_hits::cpu0.data      8349858                       # number of overall hits
system.cpu0.dcache.overall_hits::total        8349858                       # number of overall hits
system.cpu0.dcache.ReadReq_misses::cpu0.data        29140                       # number of ReadReq misses
system.cpu0.dcache.ReadReq_misses::total        29140                       # number of ReadReq misses
system.cpu0.dcache.WriteReq_misses::cpu0.data         9860                       # number of WriteReq misses
system.cpu0.dcache.WriteReq_misses::total         9860                       # number of WriteReq misses
system.cpu0.dcache.demand_misses::cpu0.data        39000                       # number of demand (read+write) misses
system.cpu0.dcache.demand_misses::total         39000                       # number of demand (read+write) misses
system.cpu0.dcache.overall_misses::cpu0.data        39000                       # number of overall misses
system.cpu0.dcache.overall_misses::total        39000                       # number of overall misses
system.cpu0.dcache.ReadReq_miss_latency::cpu0.data   1343099500                       # number of ReadReq miss cycles
system.cpu0.dcache.ReadReq_miss_latency::total   1343099500                       # number of ReadReq miss cycles
system.cpu0.dcache.WriteReq_miss_latency::cpu0.data    912406500                       # number of WriteReq miss cycles
system.cpu0.dcache.WriteReq_miss_latency::total    912406500                       # number of WriteReq miss cycles
system.cpu0.dcache.demand_miss_latency::cpu0.data   2255506000                       # number of demand (read+write) miss cycles
system.cpu0.dcache.demand_miss_latency::total   2255506000                       # number of demand (read+write) miss cycles
system.cpu0.dcache.overall_miss_latency::cpu0.data   2255506000                       # number of overall miss cycles
system.cpu0.dcache.overall_miss_latency::total   2255506000                       # number of overall miss cycles
system.cpu0.dcache.ReadReq_accesses::cpu0.data      6754688                       # number of ReadReq accesses(hits+misses)
system.cpu0.dcache.ReadReq_accesses::total      6754688                       # number of ReadReq accesses(hits+misses)
system.cpu0.dcache.WriteReq_accesses::cpu0.data      1634170                       # number of WriteReq accesses(hits+misses)
system.cpu0.dcache.WriteReq_accesses::total      1634170                       # number of WriteReq accesses(hits+misses)
system.cpu0.dcache.demand_accesses::cpu0.data      8388858                       # number of demand (read+write) accesses
system.cpu0.dcache.demand_accesses::total      8388858                       # number of demand (read+write) accesses
system.cpu0.dcache.overall_accesses::cpu0.data      8388858                       # number of overall (read+write) accesses
system.cpu0.dcache.overall_accesses::total      8388858                       # number of overall (read+write) accesses
system.cpu0.dcache.ReadReq_miss_rate::cpu0.data     0.004314                       # miss rate for ReadReq accesses
system.cpu0.dcache.ReadReq_miss_rate::total     0.004314                       # miss rate for ReadReq accesses
system.cpu0.dcache.WriteReq_miss_rate::cpu0.data     0.006034                       # miss rate for WriteReq accesses
system.cpu0.dcache.WriteReq_miss_rate::total     0.006034                       # miss rate for WriteReq accesses
[...]
system.l2.overall_miss_rate::cpu0.inst       0.000456                       # miss rate for overall accesses
system.l2.overall_miss_rate::cpu0.data       0.654861                       # miss rate for overall accesses
system.l2.overall_miss_rate::total           0.498601                       # miss rate for overall accesses
system.l2.ReadExReq_avg_miss_latency::cpu0.data 94160.521583                       # average ReadExReq miss latency
system.l2.ReadExReq_avg_miss_latency::total 94160.521583                       # average ReadExReq miss latency
system.l2.ReadCleanReq_avg_miss_latency::cpu0.inst 92666.666667                       # average ReadCleanReq miss latency
system.l2.ReadCleanReq_avg_miss_latency::total 92666.666667                       # average ReadCleanReq miss latency
system.l2.ReadSharedReq_avg_miss_latency::cpu0.data 110464.033997                       # average ReadSharedReq miss latency
system.l2.ReadSharedReq_avg_miss_latency::total 110464.033997                       # average ReadSharedReq miss latency
system.l2.demand_avg_miss_latency::cpu0.inst 92666.666667                       # average overall miss latency
system.l2.demand_avg_miss_latency::cpu0.data 99892.893586                       # average overall miss latency
system.l2.demand_avg_miss_latency::total 99891.313853                       # average overall miss latency
system.l2.overall_avg_miss_latency::cpu0.inst 92666.666667                       # average overall miss latency
system.l2.overall_avg_miss_latency::cpu0.data 99892.893586                       # average overall miss latency
system.l2.overall_avg_miss_latency::total 99891.313853                       # average overall miss latency
system.l2.blocked_cycles::no_mshrs                  0                       # number of cycles access was blocked
system.l2.blocked_cycles::no_targets                0                       # number of cycles access was blocked
system.l2.blocked::no_mshrs                         0                       # number of cycles access was blocked
system.l2.blocked::no_targets                       0                       # number of cycles access was blocked
system.l2.avg_blocked_cycles::no_mshrs            nan                       # average number of cycles each access was blocked
system.l2.avg_blocked_cycles::no_targets          nan                       # average number of cycles each access was blocked
system.l2.writebacks::writebacks                13625                       # number of writebacks
system.l2.writebacks::total                     13625                       # number of writebacks
system.l2.ReadExReq_mshr_misses::cpu0.data         8896                       # number of ReadExReq MSHR misses
system.l2.ReadExReq_mshr_misses::total           8896                       # number of ReadExReq MSHR misses
system.l2.ReadCleanReq_mshr_misses::cpu0.inst            3                       # number of ReadCleanReq MSHR misses
system.l2.ReadCleanReq_mshr_misses::total            3                       # number of ReadCleanReq MSHR misses
system.l2.ReadSharedReq_mshr_misses::cpu0.data         4824                       # number of ReadSharedReq MSHR misses
system.l2.ReadSharedReq_mshr_misses::total         4824                       # number of ReadSharedReq MSHR misses
system.l2.demand_mshr_misses::cpu0.inst             3                       # number of demand (read+write) MSHR misses
system.l2.demand_mshr_misses::cpu0.data         13720                       # number of demand (read+write) MSHR misses
system.l2.demand_mshr_misses::total             13723                       # number of demand (read+write) MSHR misses
system.l2.overall_mshr_misses::cpu0.inst            3                       # number of overall MSHR misses
system.l2.overall_mshr_misses::cpu0.data        13720                       # number of overall MSHR misses
system.l2.overall_mshr_misses::total            13723                       # number of overall MSHR misses
system.l2.ReadExReq_mshr_miss_latency::cpu0.data    748692000                       # number of ReadExReq MSHR miss cycles
system.l2.ReadExReq_mshr_miss_latency::total    748692000                       # number of ReadExReq MSHR miss cycles
system.l2.ReadCleanReq_mshr_miss_latency::cpu0.inst       248000                       # number of ReadCleanReq MSHR miss cycles
system.l2.ReadCleanReq_mshr_miss_latency::total       248000                       # number of ReadCleanReq MSHR miss cycles
system.l2.ReadSharedReq_mshr_miss_latency::cpu0.data    484638500                       # number of ReadSharedReq MSHR miss cycles
system.l2.ReadSharedReq_mshr_miss_latency::total    484638500                       # number of ReadSharedReq MSHR miss cycles
system.l2.demand_mshr_miss_latency::cpu0.inst       248000                       # number of demand (read+write) MSHR miss cycles
system.l2.demand_mshr_miss_latency::cpu0.data   1233330500                       # number of demand (read+write) MSHR miss cycles
system.l2.demand_mshr_miss_latency::total   1233578500                       # number of demand (read+write) MSHR miss cycles
system.l2.overall_mshr_miss_latency::cpu0.inst       248000                       # number of overall MSHR miss cycles
system.l2.overall_mshr_miss_latency::cpu0.data   1233330500                       # number of overall MSHR miss cycles
system.l2.overall_mshr_miss_latency::total   1233578500                       # number of overall MSHR miss cycles
system.l2.ReadExReq_mshr_miss_rate::cpu0.data     0.962042                       # mshr miss rate for ReadExReq accesses
system.l2.ReadExReq_mshr_miss_rate::total     0.962042                       # mshr miss rate for ReadExReq accesses
system.l2.ReadCleanReq_mshr_miss_rate::cpu0.inst     0.000456                       # mshr miss rate for ReadCleanReq accesses
system.l2.ReadCleanReq_mshr_miss_rate::total     0.000456                       # mshr miss rate for ReadCleanReq accesses
system.l2.ReadSharedReq_mshr_miss_rate::cpu0.data     0.412167                       # mshr miss rate for ReadSharedReq accesses
system.l2.ReadSharedReq_mshr_miss_rate::total     0.412167                       # mshr miss rate for ReadSharedReq accesses
system.l2.demand_mshr_miss_rate::cpu0.inst     0.000456                       # mshr miss rate for demand accesses
system.l2.demand_mshr_miss_rate::cpu0.data     0.654861                       # mshr miss rate for demand accesses
system.l2.demand_mshr_miss_rate::total       0.498601                       # mshr miss rate for demand accesses
system.l2.overall_mshr_miss_rate::cpu0.inst     0.000456                       # mshr miss rate for overall accesses
system.l2.overall_mshr_miss_rate::cpu0.data     0.654861                       # mshr miss rate for overall accesses
system.l2.overall_mshr_miss_rate::total      0.498601                       # mshr miss rate for overall accesses
system.l2.ReadExReq_avg_mshr_miss_latency::cpu0.data 84160.521583                       # average ReadExReq mshr miss latency
system.l2.ReadExReq_avg_mshr_miss_latency::total 84160.521583                       # average ReadExReq mshr miss latency
system.l2.ReadCleanReq_avg_mshr_miss_latency::cpu0.inst 82666.666667                       # average ReadCleanReq mshr miss latency
system.l2.ReadCleanReq_avg_mshr_miss_latency::total 82666.666667                       # average ReadCleanReq mshr miss latency
system.l2.ReadSharedReq_avg_mshr_miss_latency::cpu0.data 100464.033997                       # average ReadSharedReq mshr miss latency
system.l2.ReadSharedReq_avg_mshr_miss_latency::total 100464.033997                       # average ReadSharedReq mshr miss latency
system.l2.demand_avg_mshr_miss_latency::cpu0.inst 82666.666667                       # average overall mshr miss latency
system.l2.demand_avg_mshr_miss_latency::cpu0.data 89892.893586                       # average overall mshr miss latency
system.l2.demand_avg_mshr_miss_latency::total 89891.313853                       # average overall mshr miss latency
system.l2.overall_avg_mshr_miss_latency::cpu0.inst 82666.666667                       # average overall mshr miss latency
system.l2.overall_avg_mshr_miss_latency::cpu0.data 89892.893586                       # average overall mshr miss latency
system.l2.overall_avg_mshr_miss_latency::total 89891.313853                       # average overall mshr miss latency
system.membus.snoop_filter.tot_requests         27447                       # Total number of requests made to the snoop filter.
system.membus.snoop_filter.hit_single_requests        13724                       # Number of requests hitting in the snoop filter with a single holder of the requested data.
system.membus.snoop_filter.hit_multi_requests            0                       # Number of requests hitting in the snoop filter with multiple (>1) holders of the requested data.
system.membus.snoop_filter.tot_snoops               0                       # Total number of snoops made to the snoop filter.
system.membus.snoop_filter.hit_single_snoops            0                       # Number of snoops hitting in the snoop filter with a single holder of the requested data.
system.membus.snoop_filter.hit_multi_snoops            0                       # Number of snoops hitting in the snoop filter with multiple (>1) holders of the requested data.
system.membus.pwrStateResidencyTicks::UNDEFINED  15267344125                       # Cumulative time (in ticks) in various power states
system.membus.trans_dist::ReadResp               4827                       # Transaction distribution
system.membus.trans_dist::WritebackDirty        13625                       # Transaction distribution
system.membus.trans_dist::CleanEvict               99                       # Transaction distribution
system.membus.trans_dist::ReadExReq              8896                       # Transaction distribution
system.membus.trans_dist::ReadExResp             8896                       # Transaction distribution
system.membus.trans_dist::ReadSharedReq          4827                       # Transaction distribution
system.membus.pkt_count_system.l2.mem_side::system.mem_ctrls.port        41170                       # Packet count per connected master and slave (bytes)
system.membus.pkt_count_system.l2.mem_side::total        41170                       # Packet count per connected master and slave (bytes)
system.membus.pkt_count::total                  41170                       # Packet count per connected master and slave (bytes)
system.membus.pkt_size_system.l2.mem_side::system.mem_ctrls.port      1750272                       # Cumulative packet size per connected master and slave (bytes)
system.membus.pkt_size_system.l2.mem_side::total      1750272                       # Cumulative packet size per connected master and slave (bytes)
system.membus.pkt_size::total                 1750272                       # Cumulative packet size per connected master and slave (bytes)
system.membus.snoops                                0                       # Total snoops (count)
system.membus.snoopTraffic                          0                       # Total snoop traffic (bytes)
system.membus.snoop_fanout::samples             13723                       # Request fanout histogram
system.membus.snoop_fanout::mean                    0                       # Request fanout histogram
system.membus.snoop_fanout::stdev                   0                       # Request fanout histogram
system.membus.snoop_fanout::underflows              0      0.00%      0.00% # Request fanout histogram
system.membus.snoop_fanout::0                   13723    100.00%    100.00% # Request fanout histogram
system.membus.snoop_fanout::1                       0      0.00%    100.00% # Request fanout histogram
system.membus.snoop_fanout::overflows               0      0.00%    100.00% # Request fanout histogram
system.membus.snoop_fanout::min_value               0                       # Request fanout histogram
system.membus.snoop_fanout::max_value               0                       # Request fanout histogram
system.membus.snoop_fanout::total               13723                       # Request fanout histogram
system.membus.reqLayer12.occupancy           85274000                       # Layer occupancy (ticks)
system.membus.reqLayer12.utilization              0.6                       # Layer utilization (%)
system.membus.respLayer1.occupancy           74423500                       # Layer occupancy (ticks)
system.membus.respLayer1.utilization              0.5                       # Layer utilization (%)
system.tol2bus.snoop_filter.tot_requests        55115                       # Total number of requests made to the snoop filter.
system.tol2bus.snoop_filter.hit_single_requests        27545                       # Number of requests hitting in the snoop filter with a single holder of the requested data.
system.tol2bus.snoop_filter.hit_multi_requests           73                       # Number of requests hitting in the snoop filter with multiple (>1) holders of the requested data.
system.tol2bus.snoop_filter.tot_snoops              6                       # Total number of snoops made to the snoop filter.
system.tol2bus.snoop_filter.hit_single_snoops            6                       # Number of snoops hitting in the snoop filter with a single holder of the requested data.
system.tol2bus.snoop_filter.hit_multi_snoops            0                       # Number of snoops hitting in the snoop filter with multiple (>1) holders of the requested data.
system.tol2bus.pwrStateResidencyTicks::UNDEFINED  15267344125                       # Cumulative time (in ticks) in various power states
system.tol2bus.trans_dist::ReadResp             18308                       # Transaction distribution
system.tol2bus.trans_dist::WritebackDirty        31379                       # Transaction distribution
system.tol2bus.trans_dist::WritebackClean         6587                       # Transaction distribution
system.tol2bus.trans_dist::CleanEvict            3302                       # Transaction distribution
system.tol2bus.trans_dist::UpgradeReq              22                       # Transaction distribution
system.tol2bus.trans_dist::UpgradeResp             22                       # Transaction distribution
system.tol2bus.trans_dist::ReadExReq             9247                       # Transaction distribution
system.tol2bus.trans_dist::ReadExResp            9247                       # Transaction distribution
system.tol2bus.trans_dist::ReadCleanReq          6604                       # Transaction distribution
system.tol2bus.trans_dist::ReadSharedReq        11704                       # Transaction distribution
system.tol2bus.pkt_count_system.cpu0.icache.mem_side::system.l2.cpu_side        19763                       # Packet count per connected master and slave (bytes)
system.tol2bus.pkt_count_system.cpu0.dcache.mem_side::system.l2.cpu_side        62897                       # Packet count per connected master and slave (bytes)
system.tol2bus.pkt_count::total                 82660                       # Packet count per connected master and slave (bytes)
system.tol2bus.pkt_size_system.cpu0.icache.mem_side::system.l2.cpu_side       842176                       # Cumulative packet size per connected master and slave (bytes)
system.tol2bus.pkt_size_system.cpu0.dcache.mem_side::system.l2.cpu_side      2477120                       # Cumulative packet size per connected master and slave (bytes)
system.tol2bus.pkt_size::total                3319296                       # Cumulative packet size per connected master and slave (bytes)
system.tol2bus.snoops                           13762                       # Total snoops (count)
system.tol2bus.snoopTraffic                    874048                       # Total snoop traffic (bytes)
system.tol2bus.snoop_fanout::samples            41307                       # Request fanout histogram
system.tol2bus.snoop_fanout::mean            0.001961                       # Request fanout histogram
system.tol2bus.snoop_fanout::stdev           0.044239                       # Request fanout histogram
system.tol2bus.snoop_fanout::underflows             0      0.00%      0.00% # Request fanout histogram
system.tol2bus.snoop_fanout::0                  41226     99.80%     99.80% # Request fanout histogram
system.tol2bus.snoop_fanout::1                     81      0.20%    100.00% # Request fanout histogram
system.tol2bus.snoop_fanout::2                      0      0.00%    100.00% # Request fanout histogram
system.tol2bus.snoop_fanout::3                      0      0.00%    100.00% # Request fanout histogram
system.tol2bus.snoop_fanout::4                      0      0.00%    100.00% # Request fanout histogram
system.tol2bus.snoop_fanout::5                      0      0.00%    100.00% # Request fanout histogram
system.tol2bus.snoop_fanout::6                      0      0.00%    100.00% # Request fanout histogram
system.tol2bus.snoop_fanout::7                      0      0.00%    100.00% # Request fanout histogram
system.tol2bus.snoop_fanout::8                      0      0.00%    100.00% # Request fanout histogram
system.tol2bus.snoop_fanout::9                      0      0.00%    100.00% # Request fanout histogram
system.tol2bus.snoop_fanout::10                     0      0.00%    100.00% # Request fanout histogram
system.tol2bus.snoop_fanout::11                     0      0.00%    100.00% # Request fanout histogram
system.tol2bus.snoop_fanout::12                     0      0.00%    100.00% # Request fanout histogram
system.tol2bus.snoop_fanout::13                     0      0.00%    100.00% # Request fanout histogram
system.tol2bus.snoop_fanout::14                     0      0.00%    100.00% # Request fanout histogram
system.tol2bus.snoop_fanout::15                     0      0.00%    100.00% # Request fanout histogram
system.tol2bus.snoop_fanout::16                     0      0.00%    100.00% # Request fanout histogram
system.tol2bus.snoop_fanout::17                     0      0.00%    100.00% # Request fanout histogram
system.tol2bus.snoop_fanout::18                     0      0.00%    100.00% # Request fanout histogram
system.tol2bus.snoop_fanout::19                     0      0.00%    100.00% # Request fanout histogram
system.tol2bus.snoop_fanout::20                     0      0.00%    100.00% # Request fanout histogram
system.tol2bus.snoop_fanout::21                     0      0.00%    100.00% # Request fanout histogram
system.tol2bus.snoop_fanout::22                     0      0.00%    100.00% # Request fanout histogram
system.tol2bus.snoop_fanout::23                     0      0.00%    100.00% # Request fanout histogram
system.tol2bus.snoop_fanout::24                     0      0.00%    100.00% # Request fanout histogram
system.tol2bus.snoop_fanout::overflows              0      0.00%    100.00% # Request fanout histogram
system.tol2bus.snoop_fanout::min_value              0                       # Request fanout histogram
system.tol2bus.snoop_fanout::max_value              1                       # Request fanout histogram
system.tol2bus.snoop_fanout::total              41307                       # Request fanout histogram
system.tol2bus.reqLayer0.occupancy           51898500                       # Layer occupancy (ticks)
system.tol2bus.reqLayer0.utilization              0.3                       # Layer utilization (%)
system.tol2bus.respLayer0.occupancy           9906000                       # Layer occupancy (ticks)
system.tol2bus.respLayer0.utilization             0.1                       # Layer utilization (%)
system.tol2bus.respLayer1.occupancy          31438997                       # Layer occupancy (ticks)
system.tol2bus.respLayer1.utilization             0.2                       # Layer utilization (%)

---------- End Simulation Statistics   ----------
