
---------- Begin Simulation Statistics ----------
sim_seconds                                  0.015267                       # Number of seconds simulated
sim_ticks                                 15267344125                       # Number of ticks simulated
final_tick                               3633627901750                       # Number of ticks from beginning of simulation (restored from checkpoints and never reset)
sim_freq                                 1000000000000                       # Frequency of simulated ticks
host_inst_rate                               33398876                       # Simulator instruction rate (inst/s)
host_op_rate                                 62146366                       # Simulator op (including micro ops) rate (op/s)
host_tick_rate                               86496432                       # Simulator tick rate (ticks/s)
host_mem_usage                                3428828                       # Number of bytes of host memory used
host_seconds                                   176.51                       # Real time elapsed on the host
sim_insts                                  5895179860                       # Number of instructions simulated
sim_ops                                   10969352571                       # Number of ops (including micro ops) simulated
system.voltage_domain.voltage                       1                       # Voltage in Volts
system.clk_domain.clock                          1000                       # Clock period in ticks
system.mem_ctrls.pwrStateResidencyTicks::UNDEFINED  15267344125                       # Cumulative time (in ticks) in various power states
system.mem_ctrls.bytes_read::cpu0.inst            320                       # Number of bytes read from this memory
system.mem_ctrls.bytes_read::cpu0.data        2989120                       # Number of bytes read from this memory
system.mem_ctrls.bytes_read::total            2989440                       # Number of bytes read from this memory
system.mem_ctrls.bytes_inst_read::cpu0.inst          320                       # Number of instructions bytes read from this memory
system.mem_ctrls.bytes_inst_read::total           320                       # Number of instructions bytes read from this memory
system.mem_ctrls.bytes_written::writebacks       474944                       # Number of bytes written to this memory
system.mem_ctrls.bytes_written::total          474944                       # Number of bytes written to this memory
system.mem_ctrls.num_reads::cpu0.inst               5                       # Number of read requests responded to by this memory
system.mem_ctrls.num_reads::cpu0.data           46705                       # Number of read requests responded to by this memory
system.mem_ctrls.num_reads::total               46710                       # Number of read requests responded to by this memory
system.mem_ctrls.num_writes::writebacks          7421                       # Number of write requests responded to by this memory
system.mem_ctrls.num_writes::total               7421                       # Number of write requests responded to by this memory
system.mem_ctrls.bw_read::cpu0.inst             20960                       # Total read bandwidth from this memory (bytes/s)
system.mem_ctrls.bw_read::cpu0.data         195785198                       # Total read bandwidth from this memory (bytes/s)
system.mem_ctrls.bw_read::total             195806158                       # Total read bandwidth from this memory (bytes/s)
system.mem_ctrls.bw_inst_read::cpu0.inst        20960                       # Instruction read bandwidth from this memory (bytes/s)
system.mem_ctrls.bw_inst_read::total            20960                       # Instruction read bandwidth from this memory (bytes/s)
system.mem_ctrls.bw_write::writebacks        31108489                       # Write bandwidth from this memory (bytes/s)
system.mem_ctrls.bw_write::total             31108489                       # Write bandwidth from this memory (bytes/s)
system.mem_ctrls.bw_total::writebacks        31108489                       # Total bandwidth to/from this memory (bytes/s)
system.mem_ctrls.bw_total::cpu0.inst            20960                       # Total bandwidth to/from this memory (bytes/s)
system.mem_ctrls.bw_total::cpu0.data        195785198                       # Total bandwidth to/from this memory (bytes/s)
system.mem_ctrls.bw_total::total            226914647                       # Total bandwidth to/from this memory (bytes/s)
system.mem_ctrls.readReqs                       46709                       # Number of read requests accepted
system.mem_ctrls.writeReqs                       7421                       # Number of write requests accepted
system.mem_ctrls.readBursts                     46709                       # Number of DRAM read bursts, including those serviced by the write queue
system.mem_ctrls.writeBursts                     7421                       # Number of DRAM write bursts, including those merged in the write queue
system.mem_ctrls.bytesReadDRAM                2972736                       # Total number of bytes read from DRAM
system.mem_ctrls.bytesReadWrQ                   16640                       # Total number of bytes read from write queue
system.mem_ctrls.bytesWritten                  475840                       # Total number of bytes written to DRAM
system.mem_ctrls.bytesReadSys                 2989376                       # Total read bytes from the system interface side
system.mem_ctrls.bytesWrittenSys               474944                       # Total written bytes from the system interface side
system.mem_ctrls.servicedByWrQ                    260                       # Number of DRAM read bursts serviced by the write queue
system.mem_ctrls.mergedWrBursts                     0                       # Number of DRAM write bursts merged with an existing one
system.mem_ctrls.neitherReadNorWriteReqs            0                       # Number of requests that are neither read nor write
system.mem_ctrls.perBankRdBursts::0              2313                       # Per bank write bursts
system.mem_ctrls.perBankRdBursts::1              2516                       # Per bank write bursts
system.mem_ctrls.perBankRdBursts::2              2867                       # Per bank write bursts
system.mem_ctrls.perBankRdBursts::3              3664                       # Per bank write bursts
system.mem_ctrls.perBankRdBursts::4              4274                       # Per bank write bursts
system.mem_ctrls.perBankRdBursts::5              3698                       # Per bank write bursts
system.mem_ctrls.perBankRdBursts::6              3463                       # Per bank write bursts
system.mem_ctrls.perBankRdBursts::7              2661                       # Per bank write bursts
system.mem_ctrls.perBankRdBursts::8              2672                       # Per bank write bursts
system.mem_ctrls.perBankRdBursts::9              2684                       # Per bank write bursts
system.mem_ctrls.perBankRdBursts::10             2708                       # Per bank write bursts
system.mem_ctrls.perBankRdBursts::11             2597                       # Per bank write bursts
system.mem_ctrls.perBankRdBursts::12             2723                       # Per bank write bursts
system.mem_ctrls.perBankRdBursts::13             2710                       # Per bank write bursts
system.mem_ctrls.perBankRdBursts::14             2517                       # Per bank write bursts
system.mem_ctrls.perBankRdBursts::15             2382                       # Per bank write bursts
system.mem_ctrls.perBankWrBursts::0               552                       # Per bank write bursts
system.mem_ctrls.perBankWrBursts::1               578                       # Per bank write bursts
system.mem_ctrls.perBankWrBursts::2               653                       # Per bank write bursts
system.mem_ctrls.perBankWrBursts::3               416                       # Per bank write bursts
system.mem_ctrls.perBankWrBursts::4               430                       # Per bank write bursts
system.mem_ctrls.perBankWrBursts::5               418                       # Per bank write bursts
system.mem_ctrls.perBankWrBursts::6               350                       # Per bank write bursts
system.mem_ctrls.perBankWrBursts::7               236                       # Per bank write bursts
system.mem_ctrls.perBankWrBursts::8               307                       # Per bank write bursts
system.mem_ctrls.perBankWrBursts::9               361                       # Per bank write bursts
system.mem_ctrls.perBankWrBursts::10              596                       # Per bank write bursts
system.mem_ctrls.perBankWrBursts::11              465                       # Per bank write bursts
system.mem_ctrls.perBankWrBursts::12              507                       # Per bank write bursts
system.mem_ctrls.perBankWrBursts::13              532                       # Per bank write bursts
system.mem_ctrls.perBankWrBursts::14              537                       # Per bank write bursts
system.mem_ctrls.perBankWrBursts::15              497                       # Per bank write bursts
system.mem_ctrls.numRdRetry                         0                       # Number of times read queue was full causing retry
system.mem_ctrls.numWrRetry                         0                       # Number of times write queue was full causing retry
system.mem_ctrls.totGap                   15262476500                       # Total gap between requests
system.mem_ctrls.readPktSize::0                     0                       # Read request sizes (log2)
system.mem_ctrls.readPktSize::1                     0                       # Read request sizes (log2)
system.mem_ctrls.readPktSize::2                     0                       # Read request sizes (log2)
system.mem_ctrls.readPktSize::3                     0                       # Read request sizes (log2)
system.mem_ctrls.readPktSize::4                     0                       # Read request sizes (log2)
system.mem_ctrls.readPktSize::5                     0                       # Read request sizes (log2)
system.mem_ctrls.readPktSize::6                 46709                       # Read request sizes (log2)
system.mem_ctrls.writePktSize::0                    0                       # Write request sizes (log2)
system.mem_ctrls.writePktSize::1                    0                       # Write request sizes (log2)
system.mem_ctrls.writePktSize::2                    0                       # Write request sizes (log2)
system.mem_ctrls.writePktSize::3                    0                       # Write request sizes (log2)
system.mem_ctrls.writePktSize::4                    0                       # Write request sizes (log2)
system.mem_ctrls.writePktSize::5                    0                       # Write request sizes (log2)
system.mem_ctrls.writePktSize::6                 7421                       # Write request sizes (log2)
system.mem_ctrls.rdQLenPdf::0                   38568                       # What read queue length does an incoming req see
system.mem_ctrls.rdQLenPdf::1                    7250                       # What read queue length does an incoming req see
system.mem_ctrls.rdQLenPdf::2                     600                       # What read queue length does an incoming req see
system.mem_ctrls.rdQLenPdf::3                      31                       # What read queue length does an incoming req see
system.mem_ctrls.rdQLenPdf::4                       0                       # What read queue length does an incoming req see
system.mem_ctrls.rdQLenPdf::5                       0                       # What read queue length does an incoming req see
system.mem_ctrls.rdQLenPdf::6                       0                       # What read queue length does an incoming req see
system.mem_ctrls.rdQLenPdf::7                       0                       # What read queue length does an incoming req see
system.mem_ctrls.rdQLenPdf::8                       0                       # What read queue length does an incoming req see
system.mem_ctrls.rdQLenPdf::9                       0                       # What read queue length does an incoming req see
system.mem_ctrls.rdQLenPdf::10                      0                       # What read queue length does an incoming req see
system.mem_ctrls.rdQLenPdf::11                      0                       # What read queue length does an incoming req see
system.mem_ctrls.rdQLenPdf::12                      0                       # What read queue length does an incoming req see
system.mem_ctrls.rdQLenPdf::13                      0                       # What read queue length does an incoming req see
system.mem_ctrls.rdQLenPdf::14                      0                       # What read queue length does an incoming req see
system.mem_ctrls.rdQLenPdf::15                      0                       # What read queue length does an incoming req see
system.mem_ctrls.rdQLenPdf::16                      0                       # What read queue length does an incoming req see
system.mem_ctrls.rdQLenPdf::17                      0                       # What read queue length does an incoming req see
system.mem_ctrls.rdQLenPdf::18                      0                       # What read queue length does an incoming req see
system.mem_ctrls.rdQLenPdf::19                      0                       # What read queue length does an incoming req see
system.mem_ctrls.rdQLenPdf::20                      0                       # What read queue length does an incoming req see
system.mem_ctrls.rdQLenPdf::21                      0                       # What read queue length does an incoming req see
system.mem_ctrls.rdQLenPdf::22                      0                       # What read queue length does an incoming req see
system.mem_ctrls.rdQLenPdf::23                      0                       # What read queue length does an incoming req see
system.mem_ctrls.rdQLenPdf::24                      0                       # What read queue length does an incoming req see
system.mem_ctrls.rdQLenPdf::25                      0                       # What read queue length does an incoming req see
system.mem_ctrls.rdQLenPdf::26                      0                       # What read queue length does an incoming req see
system.mem_ctrls.rdQLenPdf::27                      0                       # What read queue length does an incoming req see
system.mem_ctrls.rdQLenPdf::28                      0                       # What read queue length does an incoming req see
system.mem_ctrls.rdQLenPdf::29                      0                       # What read queue length does an incoming req see
system.mem_ctrls.rdQLenPdf::30                      0                       # What read queue length does an incoming req see
system.mem_ctrls.rdQLenPdf::31                      0                       # What read queue length does an incoming req see
system.mem_ctrls.wrQLenPdf::0                       0                       # What write queue length does an incoming req see
system.mem_ctrls.wrQLenPdf::1                       0                       # What write queue length does an incoming req see
system.mem_ctrls.wrQLenPdf::2                       0                       # What write queue length does an incoming req see
system.mem_ctrls.wrQLenPdf::3                       0                       # What write queue length does an incoming req see
system.mem_ctrls.wrQLenPdf::4                       0                       # What write queue length does an incoming req see
system.mem_ctrls.wrQLenPdf::5                       0                       # What write queue length does an incoming req see
system.mem_ctrls.wrQLenPdf::6                       0                       # What write queue length does an incoming req see
system.mem_ctrls.wrQLenPdf::7                       0                       # What write queue length does an incoming req see
system.mem_ctrls.wrQLenPdf::8                       0                       # What write queue length does an incoming req see
system.mem_ctrls.wrQLenPdf::9                       0                       # What write queue length does an incoming req see
system.mem_ctrls.wrQLenPdf::10                      0                       # What write queue length does an incoming req see
system.mem_ctrls.wrQLenPdf::11                      0                       # What write queue length does an incoming req see
system.mem_ctrls.wrQLenPdf::12                      0                       # What write queue length does an incoming req see
system.mem_ctrls.wrQLenPdf::13                      0                       # What write queue length does an incoming req see
system.mem_ctrls.wrQLenPdf::14                      0                       # What write queue length does an incoming req see
system.mem_ctrls.wrQLenPdf::15                    158                       # What write queue length does an incoming req see
system.mem_ctrls.wrQLenPdf::16                    162                       # What write queue length does an incoming req see
system.mem_ctrls.wrQLenPdf::17                    411                       # What write queue length does an incoming req see
system.mem_ctrls.wrQLenPdf::18                    442                       # What write queue length does an incoming req see
system.mem_ctrls.wrQLenPdf::19                    443                       # What write queue length does an incoming req see
system.mem_ctrls.wrQLenPdf::20                    444                       # What write queue length does an incoming req see
system.mem_ctrls.wrQLenPdf::21                    445                       # What write queue length does an incoming req see
system.mem_ctrls.wrQLenPdf::22                    443                       # What write queue length does an incoming req see
system.mem_ctrls.wrQLenPdf::23                    443                       # What write queue length does an incoming req see
system.mem_ctrls.wrQLenPdf::24                    444                       # What write queue length does an incoming req see
system.mem_ctrls.wrQLenPdf::25                    443                       # What write queue length does an incoming req see
system.mem_ctrls.wrQLenPdf::26                    445                       # What write queue length does an incoming req see
system.mem_ctrls.wrQLenPdf::27                    445                       # What write queue length does an incoming req see
system.mem_ctrls.wrQLenPdf::28                    445                       # What write queue length does an incoming req see
system.mem_ctrls.wrQLenPdf::29                    455                       # What write queue length does an incoming req see
system.mem_ctrls.wrQLenPdf::30                    459                       # What write queue length does an incoming req see
system.mem_ctrls.wrQLenPdf::31                    447                       # What write queue length does an incoming req see
system.mem_ctrls.wrQLenPdf::32                    446                       # What write queue length does an incoming req see
system.mem_ctrls.wrQLenPdf::33                      1                       # What write queue length does an incoming req see
system.mem_ctrls.wrQLenPdf::34                      0                       # What write queue length does an incoming req see
system.mem_ctrls.wrQLenPdf::35                      0                       # What write queue length does an incoming req see
system.mem_ctrls.wrQLenPdf::36                      0                       # What write queue length does an incoming req see
system.mem_ctrls.wrQLenPdf::37                      0                       # What write queue length does an incoming req see
system.mem_ctrls.wrQLenPdf::38                      0                       # What write queue length does an incoming req see
system.mem_ctrls.wrQLenPdf::39                      0                       # What write queue length does an incoming req see
system.mem_ctrls.wrQLenPdf::40                      0                       # What write queue length does an incoming req see
system.mem_ctrls.wrQLenPdf::41                      0                       # What write queue length does an incoming req see
system.mem_ctrls.wrQLenPdf::42                      0                       # What write queue length does an incoming req see
system.mem_ctrls.wrQLenPdf::43                      0                       # What write queue length does an incoming req see
system.mem_ctrls.wrQLenPdf::44                      0                       # What write queue length does an incoming req see
system.mem_ctrls.wrQLenPdf::45                      0                       # What write queue length does an incoming req see
system.mem_ctrls.wrQLenPdf::46                      0                       # What write queue length does an incoming req see
system.mem_ctrls.wrQLenPdf::47                      0                       # What write queue length does an incoming req see
system.mem_ctrls.wrQLenPdf::48                      0                       # What write queue length does an incoming req see
system.mem_ctrls.wrQLenPdf::49                      0                       # What write queue length does an incoming req see
system.mem_ctrls.wrQLenPdf::50                      0                       # What write queue length does an incoming req see
system.mem_ctrls.wrQLenPdf::51                      0                       # What write queue length does an incoming req see
system.mem_ctrls.wrQLenPdf::52                      0                       # What write queue length does an incoming req see
system.mem_ctrls.wrQLenPdf::53                      0                       # What write queue length does an incoming req see
system.mem_ctrls.wrQLenPdf::54                      0                       # What write queue length does an incoming req see
system.mem_ctrls.wrQLenPdf::55                      0                       # What write queue length does an incoming req see
system.mem_ctrls.wrQLenPdf::56                      0                       # What write queue length does an incoming req see
system.mem_ctrls.wrQLenPdf::57                      0                       # What write queue length does an incoming req see
system.mem_ctrls.wrQLenPdf::58                      0                       # What write queue length does an incoming req see
system.mem_ctrls.wrQLenPdf::59                      0                       # What write queue length does an incoming req see
system.mem_ctrls.wrQLenPdf::60                      0                       # What write queue length does an incoming req see
system.mem_ctrls.wrQLenPdf::61                      0                       # What write queue length does an incoming req see
system.mem_ctrls.wrQLenPdf::62                      0                       # What write queue length does an incoming req see
system.mem_ctrls.wrQLenPdf::63                      0                       # What write queue length does an incoming req see
system.mem_ctrls.bytesPerActivate::samples        40101                       # Bytes accessed per row activation
system.mem_ctrls.bytesPerActivate::mean     86.011621                       # Bytes accessed per row activation
system.mem_ctrls.bytesPerActivate::gmean    78.863789                       # Bytes accessed per row activation
system.mem_ctrls.bytesPerActivate::stdev    43.957009                       # Bytes accessed per row activation
system.mem_ctrls.bytesPerActivate::64-127        29980     74.76%     74.76% # Bytes accessed per row activation
system.mem_ctrls.bytesPerActivate::128-191         7390     18.43%     93.19% # Bytes accessed per row activation
system.mem_ctrls.bytesPerActivate::192-255         2028      5.06%     98.25% # Bytes accessed per row activation
system.mem_ctrls.bytesPerActivate::256-319          528      1.32%     99.56% # Bytes accessed per row activation
system.mem_ctrls.bytesPerActivate::320-383          129      0.32%     99.89% # Bytes accessed per row activation
system.mem_ctrls.bytesPerActivate::384-447           36      0.09%     99.98% # Bytes accessed per row activation
system.mem_ctrls.bytesPerActivate::448-511            6      0.01%     99.99% # Bytes accessed per row activation
system.mem_ctrls.bytesPerActivate::512-575            2      0.00%    100.00% # Bytes accessed per row activation
system.mem_ctrls.bytesPerActivate::576-639            2      0.00%    100.00% # Bytes accessed per row activation
system.mem_ctrls.bytesPerActivate::total        40101                       # Bytes accessed per row activation
system.mem_ctrls.rdPerTurnAround::samples          444                       # Reads before turning the bus around for writes
system.mem_ctrls.rdPerTurnAround::mean     104.727477                       # Reads before turning the bus around for writes
system.mem_ctrls.rdPerTurnAround::gmean     99.920901                       # Reads before turning the bus around for writes
system.mem_ctrls.rdPerTurnAround::stdev     31.907953                       # Reads before turning the bus around for writes
system.mem_ctrls.rdPerTurnAround::32-39             1      0.23%      0.23% # Reads before turning the bus around for writes
system.mem_ctrls.rdPerTurnAround::40-47             4      0.90%      1.13% # Reads before turning the bus around for writes
system.mem_ctrls.rdPerTurnAround::48-55            11      2.48%      3.60% # Reads before turning the bus around for writes
system.mem_ctrls.rdPerTurnAround::56-63            22      4.95%      8.56% # Reads before turning the bus around for writes
system.mem_ctrls.rdPerTurnAround::64-71            29      6.53%     15.09% # Reads before turning the bus around for writes
system.mem_ctrls.rdPerTurnAround::72-79            28      6.31%     21.40% # Reads before turning the bus around for writes
system.mem_ctrls.rdPerTurnAround::80-87            46     10.36%     31.76% # Reads before turning the bus around for writes
system.mem_ctrls.rdPerTurnAround::88-95            56     12.61%     44.37% # Reads before turning the bus around for writes
system.mem_ctrls.rdPerTurnAround::96-103           46     10.36%     54.73% # Reads before turning the bus around for writes
system.mem_ctrls.rdPerTurnAround::104-111           34      7.66%     62.39% # Reads before turning the bus around for writes
system.mem_ctrls.rdPerTurnAround::112-119           37      8.33%     70.72% # Reads before turning the bus around for writes
system.mem_ctrls.rdPerTurnAround::120-127           26      5.86%     76.58% # Reads before turning the bus around for writes
system.mem_ctrls.rdPerTurnAround::128-135           19      4.28%     80.86% # Reads before turning the bus around for writes
system.mem_ctrls.rdPerTurnAround::136-143           18      4.05%     84.91% # Reads before turning the bus around for writes
system.mem_ctrls.rdPerTurnAround::144-151           29      6.53%     91.44% # Reads before turning the bus around for writes
system.mem_ctrls.rdPerTurnAround::152-159           16      3.60%     95.05% # Reads before turning the bus around for writes
system.mem_ctrls.rdPerTurnAround::160-167           10      2.25%     97.30% # Reads before turning the bus around for writes
system.mem_ctrls.rdPerTurnAround::168-175            2      0.45%     97.75% # Reads before turning the bus around for writes
system.mem_ctrls.rdPerTurnAround::176-183            3      0.68%     98.42% # Reads before turning the bus around for writes
system.mem_ctrls.rdPerTurnAround::184-191            4      0.90%     99.32% # Reads before turning the bus around for writes
system.mem_ctrls.rdPerTurnAround::192-199            1      0.23%     99.55% # Reads before turning the bus around for writes
system.mem_ctrls.rdPerTurnAround::200-207            1      0.23%     99.77% # Reads before turning the bus around for writes
system.mem_ctrls.rdPerTurnAround::216-223            1      0.23%    100.00% # Reads before turning the bus around for writes
system.mem_ctrls.rdPerTurnAround::total           444                       # Reads before turning the bus around for writes
system.mem_ctrls.wrPerTurnAround::samples          444                       # Writes before turning the bus around for reads
system.mem_ctrls.wrPerTurnAround::mean      16.745495                       # Writes before turning the bus around for reads
system.mem_ctrls.wrPerTurnAround::gmean     16.716507                       # Writes before turning the bus around for reads
system.mem_ctrls.wrPerTurnAround::stdev      0.999143                       # Writes before turning the bus around for reads
system.mem_ctrls.wrPerTurnAround::16              281     63.29%     63.29% # Writes before turning the bus around for reads
system.mem_ctrls.wrPerTurnAround::17                5      1.13%     64.41% # Writes before turning the bus around for reads
system.mem_ctrls.wrPerTurnAround::18              149     33.56%     97.97% # Writes before turning the bus around for reads
system.mem_ctrls.wrPerTurnAround::19                8      1.80%     99.77% # Writes before turning the bus around for reads
system.mem_ctrls.wrPerTurnAround::20                1      0.23%    100.00% # Writes before turning the bus around for reads
system.mem_ctrls.wrPerTurnAround::total           444                       # Writes before turning the bus around for reads
system.mem_ctrls.totQLat                   1511856750                       # Total ticks spent queuing
system.mem_ctrls.totMemAccLat              2382775500                       # Total ticks spent from burst creation until serviced by the DRAM
system.mem_ctrls.totBusLat                  232245000                       # Total ticks spent in databus transfers
system.mem_ctrls.avgQLat                     32548.75                       # Average queueing delay per DRAM burst
system.mem_ctrls.avgBusLat                    5000.00                       # Average bus latency per DRAM burst
system.mem_ctrls.avgMemAccLat                51298.75                       # Average memory access latency per DRAM burst
system.mem_ctrls.avgRdBW                       194.71                       # Average DRAM read bandwidth in MiByte/s
system.mem_ctrls.avgWrBW                        31.17                       # Average achieved write bandwidth in MiByte/s
system.mem_ctrls.avgRdBWSys                    195.80                       # Average system read bandwidth in MiByte/s
system.mem_ctrls.avgWrBWSys                     31.11                       # Average system write bandwidth in MiByte/s
system.mem_ctrls.peakBW                      12800.00                       # Theoretical peak bandwidth in MiByte/s
system.mem_ctrls.busUtil                         1.76                       # Data bus utilization in percentage
system.mem_ctrls.busUtilRead                     1.52                       # Data bus utilization in percentage for reads
system.mem_ctrls.busUtilWrite                    0.24                       # Data bus utilization in percentage for writes
system.mem_ctrls.avgRdQLen                       1.11                       # Average read queue length when enqueuing
system.mem_ctrls.avgWrQLen                      24.91                       # Average write queue length when enqueuing
system.mem_ctrls.readRowHits                    12118                       # Number of row buffer hits during reads
system.mem_ctrls.writeRowHits                    1673                       # Number of row buffer hits during writes
system.mem_ctrls.readRowHitRate                 26.09                       # Row buffer hit rate for reads
system.mem_ctrls.writeRowHitRate                22.54                       # Row buffer hit rate for writes
system.mem_ctrls.avgGap                     281959.66                       # Average gap between requests
system.mem_ctrls.pageHitRate                    25.60                       # Row buffer hit rate, read and write combined
system.mem_ctrls_0.actEnergy                154352520                       # Energy for activate commands per rank (pJ)
system.mem_ctrls_0.preEnergy                 82044105                       # Energy for precharge commands per rank (pJ)
system.mem_ctrls_0.readEnergy               181755840                       # Energy for read commands per rank (pJ)
system.mem_ctrls_0.writeEnergy               18964260                       # Energy for write commands per rank (pJ)
system.mem_ctrls_0.refreshEnergy         1248948480.000000                       # Energy for refresh commands per rank (pJ)
system.mem_ctrls_0.actBackEnergy            795437280                       # Energy for active background per rank (pJ)
system.mem_ctrls_0.preBackEnergy             42948000                       # Energy for precharge background per rank (pJ)
system.mem_ctrls_0.actPowerDownEnergy      4317258660                       # Energy for active power-down per rank (pJ)
system.mem_ctrls_0.prePowerDownEnergy      1198533600                       # Energy for precharge power-down per rank (pJ)
system.mem_ctrls_0.selfRefreshEnergy        302269500                       # Energy for self refresh per rank (pJ)
system.mem_ctrls_0.totalEnergy             8342829615                       # Total energy per rank (pJ)
system.mem_ctrls_0.averagePower            546.449307                       # Core power per rank (mW)
system.mem_ctrls_0.totalIdleTime          13408774500                       # Total Idle time Per DRAM Rank
system.mem_ctrls_0.memoryStateTime::IDLE     59484750                       # Time in different power states
system.mem_ctrls_0.memoryStateTime::REF     529526000                       # Time in different power states
system.mem_ctrls_0.memoryStateTime::SREF    821567750                       # Time in different power states
system.mem_ctrls_0.memoryStateTime::PRE_PDN   3121159000                       # Time in different power states
system.mem_ctrls_0.memoryStateTime::ACT    1267871625                       # Time in different power states
system.mem_ctrls_0.memoryStateTime::ACT_PDN   9467735000                       # Time in different power states
system.mem_ctrls_1.actEnergy                131911500                       # Energy for activate commands per rank (pJ)
system.mem_ctrls_1.preEnergy                 70139190                       # Energy for precharge commands per rank (pJ)
system.mem_ctrls_1.readEnergy               149890020                       # Energy for read commands per rank (pJ)
system.mem_ctrls_1.writeEnergy               19846440                       # Energy for write commands per rank (pJ)
system.mem_ctrls_1.refreshEnergy         1230509280.000000                       # Energy for refresh commands per rank (pJ)
system.mem_ctrls_1.actBackEnergy            723724440                       # Energy for active background per rank (pJ)
system.mem_ctrls_1.preBackEnergy             44728800                       # Energy for precharge background per rank (pJ)
system.mem_ctrls_1.actPowerDownEnergy      4125328830                       # Energy for active power-down per rank (pJ)
system.mem_ctrls_1.prePowerDownEnergy      1261768320                       # Energy for precharge power-down per rank (pJ)
system.mem_ctrls_1.selfRefreshEnergy        413103720                       # Energy for self refresh per rank (pJ)
system.mem_ctrls_1.totalEnergy             8171179140                       # Total energy per rank (pJ)
system.mem_ctrls_1.averagePower            535.206325                       # Core power per rank (mW)
system.mem_ctrls_1.totalIdleTime          13563282125                       # Total Idle time Per DRAM Rank
system.mem_ctrls_1.memoryStateTime::IDLE     65286000                       # Time in different power states
system.mem_ctrls_1.memoryStateTime::REF     521792750                       # Time in different power states
system.mem_ctrls_1.memoryStateTime::SREF   1230652250                       # Time in different power states
system.mem_ctrls_1.memoryStateTime::PRE_PDN   3285876000                       # Time in different power states
system.mem_ctrls_1.memoryStateTime::ACT    1116983250                       # Time in different power states
system.mem_ctrls_1.memoryStateTime::ACT_PDN   9046753875                       # Time in different power states
system.pwrStateResidencyTicks::UNDEFINED  15267344125                       # Cumulative time (in ticks) in various power states
system.cpu0.branchPred.lookups                5923150                       # Number of BP lookups
system.cpu0.branchPred.condPredicted          5923150                       # Number of conditional branches predicted
system.cpu0.branchPred.condIncorrect           244099                       # Number of conditional branches incorrect
system.cpu0.branchPred.BTBLookups             4650548                       # Number of BTB lookups
system.cpu0.branchPred.BTBHits                      0                       # Number of BTB hits
system.cpu0.branchPred.BTBCorrect                   0                       # Number of correct BTB predictions (this stat may not work properly.
system.cpu0.branchPred.BTBHitPct             0.000000                       # BTB Hit Percentage
system.cpu0.branchPred.usedRAS                 140960                       # Number of times the RAS was used to get a target.
system.cpu0.branchPred.RASInCorrect             19520                       # Number of incorrect RAS predictions.
system.cpu0.branchPred.indirectLookups        4650548                       # Number of indirect predictor lookups.
system.cpu0.branchPred.indirectHits           2544390                       # Number of indirect target hits.
system.cpu0.branchPred.indirectMisses         2106158                       # Number of indirect misses.
system.cpu0.branchPredindirectMispredicted        78876                       # Number of mispredicted indirect branches.
system.cpu_voltage_domain.voltage                   1                       # Voltage in Volts
system.cpu_clk_domain.clock                       500                       # Clock period in ticks
system.cpu0.dtb.walker.pwrStateResidencyTicks::UNDEFINED  15267344125                       # Cumulative time (in ticks) in various power states
system.cpu0.dtb.rdAccesses                    2814516                       # TLB accesses on read requests
system.cpu0.dtb.wrAccesses                     164700                       # TLB accesses on write requests
system.cpu0.dtb.rdMisses                       598551                       # TLB misses on read requests
system.cpu0.dtb.wrMisses                         3177                       # TLB misses on write requests
system.cpu0.apic_clk_domain.clock                8000                       # Clock period in ticks
system.cpu0.interrupts.pwrStateResidencyTicks::UNDEFINED  15267344125                       # Cumulative time (in ticks) in various power states
system.cpu0.itb.walker.pwrStateResidencyTicks::UNDEFINED  15267344125                       # Cumulative time (in ticks) in various power states
system.cpu0.itb.rdAccesses                          0                       # TLB accesses on read requests
system.cpu0.itb.wrAccesses                    5028431                       # TLB accesses on write requests
system.cpu0.itb.rdMisses                            0                       # TLB misses on read requests
system.cpu0.itb.wrMisses                        14134                       # TLB misses on write requests
system.cpu0.workload.numSyscalls                    1                       # Number of system calls
system.cpu0.pwrStateResidencyTicks::ON    15267344125                       # Cumulative time (in ticks) in various power states
system.cpu0.numCycles                        30534688                       # number of cpu cycles simulated
system.cpu0.numWorkItemsStarted                     0                       # number of work items this cpu started
system.cpu0.numWorkItemsCompleted                   0                       # number of work items this cpu completed
system.cpu0.fetch.icacheStallCycles           5133439                       # Number of cycles fetch is stalled on an Icache miss
system.cpu0.fetch.Insts                      16899802                       # Number of instructions fetch has processed
system.cpu0.fetch.Branches                    5923150                       # Number of branches that fetch encountered
system.cpu0.fetch.predictedBranches           2685350                       # Number of branches that fetch has predicted taken
system.cpu0.fetch.Cycles                     25032340                       # Number of cycles fetch has run and was not squashing or blocked
system.cpu0.fetch.SquashCycles                 496854                       # Number of cycles fetch has spent squashing
system.cpu0.fetch.TlbCycles                       964                       # Number of cycles fetch has spent waiting for tlb
system.cpu0.fetch.MiscStallCycles                3098                       # Number of cycles fetch has spent waiting on interrupts, or bad addresses, or out of MSHRs
system.cpu0.fetch.PendingTrapStallCycles       105756                       # Number of stall cycles due to pending traps
system.cpu0.fetch.CacheLines                  5014297                       # Number of cache lines fetched
system.cpu0.fetch.IcacheSquashes                41025                       # Number of outstanding Icache misses that were squashed
system.cpu0.fetch.ItlbSquashes                      9                       # Number of outstanding ITLB misses that were squashed
system.cpu0.fetch.rateDist::samples          30524024                       # Number of instructions fetched each cycle (Total)
system.cpu0.fetch.rateDist::mean             1.112066                       # Number of instructions fetched each cycle (Total)
system.cpu0.fetch.rateDist::stdev            2.485309                       # Number of instructions fetched each cycle (Total)
system.cpu0.fetch.rateDist::underflows              0      0.00%      0.00% # Number of instructions fetched each cycle (Total)
system.cpu0.fetch.rateDist::0                23924411     78.38%     78.38% # Number of instructions fetched each cycle (Total)
system.cpu0.fetch.rateDist::1                   77595      0.25%     78.63% # Number of instructions fetched each cycle (Total)
system.cpu0.fetch.rateDist::2                 2495269      8.17%     86.81% # Number of instructions fetched each cycle (Total)
system.cpu0.fetch.rateDist::3                   79831      0.26%     87.07% # Number of instructions fetched each cycle (Total)
system.cpu0.fetch.rateDist::4                  446466      1.46%     88.53% # Number of instructions fetched each cycle (Total)
system.cpu0.fetch.rateDist::5                  179848      0.59%     89.12% # Number of instructions fetched each cycle (Total)
system.cpu0.fetch.rateDist::6                  272768      0.89%     90.01% # Number of instructions fetched each cycle (Total)
system.cpu0.fetch.rateDist::7                   67304      0.22%     90.24% # Number of instructions fetched each cycle (Total)
system.cpu0.fetch.rateDist::8                 2980532      9.76%    100.00% # Number of instructions fetched each cycle (Total)
system.cpu0.fetch.rateDist::overflows               0      0.00%    100.00% # Number of instructions fetched each cycle (Total)
system.cpu0.fetch.rateDist::min_value               0                       # Number of instructions fetched each cycle (Total)
system.cpu0.fetch.rateDist::max_value               8                       # Number of instructions fetched each cycle (Total)
system.cpu0.fetch.rateDist::total            30524024                       # Number of instructions fetched each cycle (Total)
system.cpu0.fetch.branchRate                 0.193981                       # Number of branch fetches per cycle
system.cpu0.fetch.rate                       0.553462                       # Number of inst fetches per cycle
system.cpu0.decode.IdleCycles                 2695371                       # Number of cycles decode is idle
system.cpu0.decode.BlockedCycles             23056341                       # Number of cycles decode is blocked
system.cpu0.decode.RunCycles                  3482045                       # Number of cycles decode is running
system.cpu0.decode.UnblockCycles              1041840                       # Number of cycles decode is unblocking
system.cpu0.decode.SquashCycles                248427                       # Number of cycles decode is squashing
system.cpu0.decode.DecodedInsts              28805203                       # Number of instructions handled by decode
system.cpu0.rename.SquashCycles                248427                       # Number of cycles rename is squashing
system.cpu0.rename.IdleCycles                 3086473                       # Number of cycles rename is idle
system.cpu0.rename.BlockCycles               19612849                       # Number of cycles rename is blocking
system.cpu0.rename.serializeStallCycles         62869                       # count of cycles rename stalled for serializing inst
system.cpu0.rename.RunCycles                  3921791                       # Number of cycles rename is running
system.cpu0.rename.UnblockCycles              3591615                       # Number of cycles rename is unblocking
system.cpu0.rename.RenamedInsts              27695050                       # Number of instructions processed by rename
system.cpu0.rename.ROBFullEvents                58588                       # Number of times rename has blocked due to ROB full
system.cpu0.rename.IQFullEvents               3235937                       # Number of times rename has blocked due to IQ full
system.cpu0.rename.LQFullEvents                119525                       # Number of times rename has blocked due to LQ full
system.cpu0.rename.SQFullEvents                 61199                       # Number of times rename has blocked due to SQ full
system.cpu0.rename.RenamedOperands           33018499                       # Number of destination operands rename has renamed
system.cpu0.rename.RenameLookups             77477350                       # Number of register rename lookups that rename has made
system.cpu0.rename.int_rename_lookups        36041367                       # Number of integer rename lookups
system.cpu0.rename.fp_rename_lookups           127191                       # Number of floating rename lookups
system.cpu0.rename.CommittedMaps             11986591                       # Number of HB maps that are committed
system.cpu0.rename.UndoneMaps                21031908                       # Number of HB maps that are undone due to squashing
system.cpu0.rename.serializingInsts              1199                       # count of serializing insts renamed
system.cpu0.rename.tempSerializingInsts          1414                       # count of temporary serializing insts renamed
system.cpu0.rename.skidInsts                  6462764                       # count of insts added to the skid buffer
system.cpu0.memDep0.insertedLoads             5037376                       # Number of loads inserted to the mem dependence unit.
system.cpu0.memDep0.insertedStores             246165                       # Number of stores inserted to the mem dependence unit.
system.cpu0.memDep0.conflictingLoads            15207                       # Number of conflicting loads.
system.cpu0.memDep0.conflictingStores           15588                       # Number of conflicting stores.
system.cpu0.iq.iqInstsAdded                  26273277                       # Number of instructions added to the IQ (excludes non-spec)
system.cpu0.iq.iqNonSpecInstsAdded              14927                       # Number of non-speculative instructions added to the IQ
system.cpu0.iq.iqInstsIssued                 18720613                       # Number of instructions issued
system.cpu0.iq.iqSquashedInstsIssued            24115                       # Number of squashed instructions issued
system.cpu0.iq.iqSquashedInstsExamined       16289102                       # Number of squashed instructions iterated over during squash; mainly for profiling
system.cpu0.iq.iqSquashedOperandsExamined     35127904                       # Number of squashed operands that are examined and possibly removed from graph
system.cpu0.iq.iqSquashedNonSpecRemoved         14926                       # Number of squashed non-spec instructions that were removed
system.cpu0.iq.issued_per_cycle::samples     30524024                       # Number of insts issued each cycle
system.cpu0.iq.issued_per_cycle::mean        0.613308                       # Number of insts issued each cycle
system.cpu0.iq.issued_per_cycle::stdev       1.356993                       # Number of insts issued each cycle
system.cpu0.iq.issued_per_cycle::underflows            0      0.00%      0.00% # Number of insts issued each cycle
system.cpu0.iq.issued_per_cycle::0           23230164     76.10%     76.10% # Number of insts issued each cycle
system.cpu0.iq.issued_per_cycle::1            2624120      8.60%     84.70% # Number of insts issued each cycle
system.cpu0.iq.issued_per_cycle::2            1546201      5.07%     89.77% # Number of insts issued each cycle
system.cpu0.iq.issued_per_cycle::3            1083022      3.55%     93.32% # Number of insts issued each cycle
system.cpu0.iq.issued_per_cycle::4            1180939      3.87%     97.18% # Number of insts issued each cycle
system.cpu0.iq.issued_per_cycle::5             389242      1.28%     98.46% # Number of insts issued each cycle
system.cpu0.iq.issued_per_cycle::6             285025      0.93%     99.39% # Number of insts issued each cycle
system.cpu0.iq.issued_per_cycle::7             107579      0.35%     99.75% # Number of insts issued each cycle
system.cpu0.iq.issued_per_cycle::8              77732      0.25%    100.00% # Number of insts issued each cycle
system.cpu0.iq.issued_per_cycle::overflows            0      0.00%    100.00% # Number of insts issued each cycle
system.cpu0.iq.issued_per_cycle::min_value            0                       # Number of insts issued each cycle
system.cpu0.iq.issued_per_cycle::max_value            8                       # Number of insts issued each cycle
system.cpu0.iq.issued_per_cycle::total       30524024                       # Number of insts issued each cycle
system.cpu0.iq.fu_full::No_OpClass                  0      0.00%      0.00% # attempts to use FU when none available
system.cpu0.iq.fu_full::IntAlu                  41282     72.98%     72.98% # attempts to use FU when none available
system.cpu0.iq.fu_full::IntMult                     0      0.00%     72.98% # attempts to use FU when none available
system.cpu0.iq.fu_full::IntDiv                      0      0.00%     72.98% # attempts to use FU when none available
system.cpu0.iq.fu_full::FloatAdd                 3800      6.72%     79.70% # attempts to use FU when none available
system.cpu0.iq.fu_full::FloatCmp                    0      0.00%     79.70% # attempts to use FU when none available
system.cpu0.iq.fu_full::FloatCvt                    0      0.00%     79.70% # attempts to use FU when none available
system.cpu0.iq.fu_full::FloatMult                   0      0.00%     79.70% # attempts to use FU when none available
system.cpu0.iq.fu_full::FloatMultAcc                0      0.00%     79.70% # attempts to use FU when none available
system.cpu0.iq.fu_full::FloatDiv                    0      0.00%     79.70% # attempts to use FU when none available
system.cpu0.iq.fu_full::FloatMisc                   0      0.00%     79.70% # attempts to use FU when none available
system.cpu0.iq.fu_full::FloatSqrt                   0      0.00%     79.70% # attempts to use FU when none available
system.cpu0.iq.fu_full::SimdAdd                     0      0.00%     79.70% # attempts to use FU when none available
system.cpu0.iq.fu_full::SimdAddAcc                  0      0.00%     79.70% # attempts to use FU when none available
system.cpu0.iq.fu_full::SimdAlu                     0      0.00%     79.70% # attempts to use FU when none available
system.cpu0.iq.fu_full::SimdCmp                     0      0.00%     79.70% # attempts to use FU when none available
system.cpu0.iq.fu_full::SimdCvt                     0      0.00%     79.70% # attempts to use FU when none available
system.cpu0.iq.fu_full::SimdMisc                    0      0.00%     79.70% # attempts to use FU when none available
system.cpu0.iq.fu_full::SimdMult                    0      0.00%     79.70% # attempts to use FU when none available
system.cpu0.iq.fu_full::SimdMultAcc                 0      0.00%     79.70% # attempts to use FU when none available
system.cpu0.iq.fu_full::SimdShift                   0      0.00%     79.70% # attempts to use FU when none available
system.cpu0.iq.fu_full::SimdShiftAcc                0      0.00%     79.70% # attempts to use FU when none available
system.cpu0.iq.fu_full::SimdSqrt                    0      0.00%     79.70% # attempts to use FU when none available
system.cpu0.iq.fu_full::SimdFloatAdd                0      0.00%     79.70% # attempts to use FU when none available
system.cpu0.iq.fu_full::SimdFloatAlu                0      0.00%     79.70% # attempts to use FU when none available
system.cpu0.iq.fu_full::SimdFloatCmp                0      0.00%     79.70% # attempts to use FU when none available
system.cpu0.iq.fu_full::SimdFloatCvt                0      0.00%     79.70% # attempts to use FU when none available
system.cpu0.iq.fu_full::SimdFloatDiv                0      0.00%     79.70% # attempts to use FU when none available
system.cpu0.iq.fu_full::SimdFloatMisc               0      0.00%     79.70% # attempts to use FU when none available
system.cpu0.iq.fu_full::SimdFloatMult               0      0.00%     79.70% # attempts to use FU when none available
system.cpu0.iq.fu_full::SimdFloatMultAcc            0      0.00%     79.70% # attempts to use FU when none available
system.cpu0.iq.fu_full::SimdFloatSqrt               0      0.00%     79.70% # attempts to use FU when none available
system.cpu0.iq.fu_full::MemRead                  9866     17.44%     97.14% # attempts to use FU when none available
system.cpu0.iq.fu_full::MemWrite                 1027      1.82%     98.96% # attempts to use FU when none available
system.cpu0.iq.fu_full::FloatMemRead              370      0.65%     99.61% # attempts to use FU when none available
system.cpu0.iq.fu_full::FloatMemWrite             220      0.39%    100.00% # attempts to use FU when none available
system.cpu0.iq.fu_full::IprAccess                   0      0.00%    100.00% # attempts to use FU when none available
system.cpu0.iq.fu_full::InstPrefetch                0      0.00%    100.00% # attempts to use FU when none available
system.cpu0.iq.FU_type_0::No_OpClass            57378      0.31%      0.31% # Type of FU issued
system.cpu0.iq.FU_type_0::IntAlu             15416854     82.35%     82.66% # Type of FU issued
system.cpu0.iq.FU_type_0::IntMult                3184      0.02%     82.68% # Type of FU issued
system.cpu0.iq.FU_type_0::IntDiv                32591      0.17%     82.85% # Type of FU issued
system.cpu0.iq.FU_type_0::FloatAdd              46786      0.25%     83.10% # Type of FU issued
system.cpu0.iq.FU_type_0::FloatCmp                  0      0.00%     83.10% # Type of FU issued
system.cpu0.iq.FU_type_0::FloatCvt                  0      0.00%     83.10% # Type of FU issued
system.cpu0.iq.FU_type_0::FloatMult                 0      0.00%     83.10% # Type of FU issued
system.cpu0.iq.FU_type_0::FloatMultAcc              0      0.00%     83.10% # Type of FU issued
system.cpu0.iq.FU_type_0::FloatDiv                  0      0.00%     83.10% # Type of FU issued
system.cpu0.iq.FU_type_0::FloatMisc                 0      0.00%     83.10% # Type of FU issued
system.cpu0.iq.FU_type_0::FloatSqrt                 0      0.00%     83.10% # Type of FU issued
system.cpu0.iq.FU_type_0::SimdAdd                   0      0.00%     83.10% # Type of FU issued
system.cpu0.iq.FU_type_0::SimdAddAcc                0      0.00%     83.10% # Type of FU issued
system.cpu0.iq.FU_type_0::SimdAlu                   0      0.00%     83.10% # Type of FU issued
system.cpu0.iq.FU_type_0::SimdCmp                   0      0.00%     83.10% # Type of FU issued
system.cpu0.iq.FU_type_0::SimdCvt                   0      0.00%     83.10% # Type of FU issued
system.cpu0.iq.FU_type_0::SimdMisc                  0      0.00%     83.10% # Type of FU issued
system.cpu0.iq.FU_type_0::SimdMult                  0      0.00%     83.10% # Type of FU issued
system.cpu0.iq.FU_type_0::SimdMultAcc               0      0.00%     83.10% # Type of FU issued
system.cpu0.iq.FU_type_0::SimdShift                 0      0.00%     83.10% # Type of FU issued
system.cpu0.iq.FU_type_0::SimdShiftAcc              0      0.00%     83.10% # Type of FU issued
system.cpu0.iq.FU_type_0::SimdSqrt                  0      0.00%     83.10% # Type of FU issued
system.cpu0.iq.FU_type_0::SimdFloatAdd              0      0.00%     83.10% # Type of FU issued
system.cpu0.iq.FU_type_0::SimdFloatAlu              0      0.00%     83.10% # Type of FU issued
system.cpu0.iq.FU_type_0::SimdFloatCmp              0      0.00%     83.10% # Type of FU issued
system.cpu0.iq.FU_type_0::SimdFloatCvt              0      0.00%     83.10% # Type of FU issued
system.cpu0.iq.FU_type_0::SimdFloatDiv              0      0.00%     83.10% # Type of FU issued
system.cpu0.iq.FU_type_0::SimdFloatMisc             0      0.00%     83.10% # Type of FU issued
system.cpu0.iq.FU_type_0::SimdFloatMult             0      0.00%     83.10% # Type of FU issued
system.cpu0.iq.FU_type_0::SimdFloatMultAcc            0      0.00%     83.10% # Type of FU issued
system.cpu0.iq.FU_type_0::SimdFloatSqrt             0      0.00%     83.10% # Type of FU issued
system.cpu0.iq.FU_type_0::MemRead             2976583     15.90%     99.00% # Type of FU issued
system.cpu0.iq.FU_type_0::MemWrite             178085      0.95%     99.95% # Type of FU issued
system.cpu0.iq.FU_type_0::FloatMemRead           8446      0.05%    100.00% # Type of FU issued
system.cpu0.iq.FU_type_0::FloatMemWrite           706      0.00%    100.00% # Type of FU issued
system.cpu0.iq.FU_type_0::IprAccess                 0      0.00%    100.00% # Type of FU issued
system.cpu0.iq.FU_type_0::InstPrefetch              0      0.00%    100.00% # Type of FU issued
system.cpu0.iq.FU_type_0::total              18720613                       # Type of FU issued
system.cpu0.iq.rate                          0.613093                       # Inst issue rate
system.cpu0.iq.fu_busy_cnt                      56565                       # FU busy when requested
system.cpu0.iq.fu_busy_rate                  0.003022                       # FU busy rate (busy events/executed inst)
system.cpu0.iq.int_inst_queue_reads          67928461                       # Number of integer instruction queue reads
system.cpu0.iq.int_inst_queue_writes         42469639                       # Number of integer instruction queue writes
system.cpu0.iq.int_inst_queue_wakeup_accesses     17901606                       # Number of integer instruction queue wakeup accesses
system.cpu0.iq.fp_inst_queue_reads             117468                       # Number of floating instruction queue reads
system.cpu0.iq.fp_inst_queue_writes            107680                       # Number of floating instruction queue writes
system.cpu0.iq.fp_inst_queue_wakeup_accesses        51175                       # Number of floating instruction queue wakeup accesses
system.cpu0.iq.vec_inst_queue_reads                 0                       # Number of vector instruction queue reads
system.cpu0.iq.vec_inst_queue_writes                0                       # Number of vector instruction queue writes
system.cpu0.iq.vec_inst_queue_wakeup_accesses            0                       # Number of vector instruction queue wakeup accesses
system.cpu0.iq.int_alu_accesses              18659405                       # Number of integer alu accesses
system.cpu0.iq.fp_alu_accesses                  60395                       # Number of floating point alu accesses
system.cpu0.iq.vec_alu_accesses                     0                       # Number of vector alu accesses
system.cpu0.iew.lsq.thread0.forwLoads           15486                       # Number of loads that had data forwarded from stores
system.cpu0.iew.lsq.thread0.invAddrLoads            0                       # Number of loads ignored due to an invalid address
system.cpu0.iew.lsq.thread0.squashedLoads      3135364                       # Number of loads squashed
system.cpu0.iew.lsq.thread0.ignoredResponses          456                       # Number of memory responses ignored because the instruction is squashed
system.cpu0.iew.lsq.thread0.memOrderViolation           13                       # Number of memory ordering violations
system.cpu0.iew.lsq.thread0.squashedStores       151663                       # Number of stores squashed
system.cpu0.iew.lsq.thread0.invAddrSwpfs            0                       # Number of software prefetches ignored due to an invalid address
system.cpu0.iew.lsq.thread0.blockedLoads            0                       # Number of blocked loads due to partial load-store forwarding
system.cpu0.iew.lsq.thread0.rescheduledLoads          114                       # Number of loads that were rescheduled
system.cpu0.iew.lsq.thread0.cacheBlocked         7737                       # Number of times an access to memory failed due to the cache being blocked
system.cpu0.iew.iewIdleCycles                       0                       # Number of cycles IEW is idle
system.cpu0.iew.iewSquashCycles                248427                       # Number of cycles IEW is squashing
system.cpu0.iew.iewBlockCycles               16567396                       # Number of cycles IEW is blocking
system.cpu0.iew.iewUnblockCycles               593120                       # Number of cycles IEW is unblocking
system.cpu0.iew.iewDispatchedInsts           26288204                       # Number of instructions dispatched to IQ
system.cpu0.iew.iewDispSquashedInsts            14180                       # Number of squashed instructions skipped by dispatch
system.cpu0.iew.iewDispLoadInsts              5037376                       # Number of dispatched load instructions
system.cpu0.iew.iewDispStoreInsts              246165                       # Number of dispatched store instructions
system.cpu0.iew.iewDispNonSpecInsts              5655                       # Number of dispatched non-speculative instructions
system.cpu0.iew.iewIQFullEvents                 39108                       # Number of times the IQ has become full, causing a stall
system.cpu0.iew.iewLSQFullEvents                37632                       # Number of times the LSQ has become full, causing a stall
system.cpu0.iew.memOrderViolationEvents            13                       # Number of memory order violations
system.cpu0.iew.predictedTakenIncorrect        132292                       # Number of branches that were predicted taken incorrectly
system.cpu0.iew.predictedNotTakenIncorrect       141573                       # Number of branches that were predicted not taken incorrectly
system.cpu0.iew.branchMispredicts              273865                       # Number of branch mispredicts detected at execute
system.cpu0.iew.iewExecutedInsts             18327285                       # Number of executed instructions
system.cpu0.iew.iewExecLoadInsts              2813567                       # Number of load instructions executed
system.cpu0.iew.iewExecSquashedInsts           393327                       # Number of squashed instructions skipped in execute
system.cpu0.iew.exec_swp                            0                       # number of swp insts executed
system.cpu0.iew.exec_nop                            0                       # number of nop insts executed
system.cpu0.iew.exec_refs                     2978217                       # number of memory reference insts executed
system.cpu0.iew.exec_branches                 2217038                       # Number of branches executed
system.cpu0.iew.exec_stores                    164650                       # Number of stores executed
system.cpu0.iew.exec_rate                    0.600212                       # Inst execution rate
system.cpu0.iew.wb_sent                      18013064                       # cumulative count of insts sent to commit
system.cpu0.iew.wb_count                     17952781                       # cumulative count of insts written-back
system.cpu0.iew.wb_producers                 13518208                       # num instructions producing a value
system.cpu0.iew.wb_consumers                 21254573                       # num instructions consuming a value
system.cpu0.iew.wb_rate                      0.587947                       # insts written-back per cycle
system.cpu0.iew.wb_fanout                    0.636014                       # average fanout of values written-back
system.cpu0.commit.commitSquashedInsts       16290328                       # The number of squashed insts skipped by commit
system.cpu0.commit.commitNonSpecStalls              1                       # The number of times commit has been forced to stall to communicate backwards
system.cpu0.commit.branchMispredicts           248419                       # The number of times a branch was mispredicted
system.cpu0.commit.committed_per_cycle::samples     28249448                       # Number of insts commited each cycle
system.cpu0.commit.committed_per_cycle::mean     0.353957                       # Number of insts commited each cycle
system.cpu0.commit.committed_per_cycle::stdev     1.048608                       # Number of insts commited each cycle
system.cpu0.commit.committed_per_cycle::underflows            0      0.00%      0.00% # Number of insts commited each cycle
system.cpu0.commit.committed_per_cycle::0     23904634     84.62%     84.62% # Number of insts commited each cycle
system.cpu0.commit.committed_per_cycle::1      2002802      7.09%     91.71% # Number of insts commited each cycle
system.cpu0.commit.committed_per_cycle::2       467953      1.66%     93.37% # Number of insts commited each cycle
system.cpu0.commit.committed_per_cycle::3      1301632      4.61%     97.97% # Number of insts commited each cycle
system.cpu0.commit.committed_per_cycle::4       238979      0.85%     98.82% # Number of insts commited each cycle
system.cpu0.commit.committed_per_cycle::5       137451      0.49%     99.31% # Number of insts commited each cycle
system.cpu0.commit.committed_per_cycle::6        21719      0.08%     99.38% # Number of insts commited each cycle
system.cpu0.commit.committed_per_cycle::7        12212      0.04%     99.43% # Number of insts commited each cycle
system.cpu0.commit.committed_per_cycle::8       162066      0.57%    100.00% # Number of insts commited each cycle
system.cpu0.commit.committed_per_cycle::overflows            0      0.00%    100.00% # Number of insts commited each cycle
system.cpu0.commit.committed_per_cycle::min_value            0                       # Number of insts commited each cycle
system.cpu0.commit.committed_per_cycle::max_value            8                       # Number of insts commited each cycle
system.cpu0.commit.committed_per_cycle::total     28249448                       # Number of insts commited each cycle
system.cpu0.commit.committedInsts             5003486                       # Number of instructions committed
system.cpu0.commit.committedOps               9999101                       # Number of ops (including micro ops) committed
system.cpu0.commit.swp_count                        0                       # Number of s/w prefetches committed
system.cpu0.commit.refs                       1996514                       # Number of memory references committed
system.cpu0.commit.loads                      1902012                       # Number of loads committed
system.cpu0.commit.membars                          0                       # Number of memory barriers committed
system.cpu0.commit.branches                   1809642                       # Number of branches committed
system.cpu0.commit.vec_insts                        0                       # Number of committed Vector instructions.
system.cpu0.commit.fp_insts                     37748                       # Number of committed floating point instructions.
system.cpu0.commit.int_insts                  9960884                       # Number of committed integer instructions.
system.cpu0.commit.function_calls               16679                       # Number of function calls committed.
system.cpu0.commit.op_class_0::No_OpClass        11404      0.11%      0.11% # Class of committed instruction
system.cpu0.commit.op_class_0::IntAlu         7930629     79.31%     79.43% # Class of committed instruction
system.cpu0.commit.op_class_0::IntMult            667      0.01%     79.43% # Class of committed instruction
system.cpu0.commit.op_class_0::IntDiv           27607      0.28%     79.71% # Class of committed instruction
system.cpu0.commit.op_class_0::FloatAdd         32280      0.32%     80.03% # Class of committed instruction
system.cpu0.commit.op_class_0::FloatCmp             0      0.00%     80.03% # Class of committed instruction
system.cpu0.commit.op_class_0::FloatCvt             0      0.00%     80.03% # Class of committed instruction
system.cpu0.commit.op_class_0::FloatMult            0      0.00%     80.03% # Class of committed instruction
system.cpu0.commit.op_class_0::FloatMultAcc            0      0.00%     80.03% # Class of committed instruction
system.cpu0.commit.op_class_0::FloatDiv             0      0.00%     80.03% # Class of committed instruction
system.cpu0.commit.op_class_0::FloatMisc            0      0.00%     80.03% # Class of committed instruction
system.cpu0.commit.op_class_0::FloatSqrt            0      0.00%     80.03% # Class of committed instruction
system.cpu0.commit.op_class_0::SimdAdd              0      0.00%     80.03% # Class of committed instruction
system.cpu0.commit.op_class_0::SimdAddAcc            0      0.00%     80.03% # Class of committed instruction
system.cpu0.commit.op_class_0::SimdAlu              0      0.00%     80.03% # Class of committed instruction
system.cpu0.commit.op_class_0::SimdCmp              0      0.00%     80.03% # Class of committed instruction
system.cpu0.commit.op_class_0::SimdCvt              0      0.00%     80.03% # Class of committed instruction
system.cpu0.commit.op_class_0::SimdMisc             0      0.00%     80.03% # Class of committed instruction
system.cpu0.commit.op_class_0::SimdMult             0      0.00%     80.03% # Class of committed instruction
system.cpu0.commit.op_class_0::SimdMultAcc            0      0.00%     80.03% # Class of committed instruction
system.cpu0.commit.op_class_0::SimdShift            0      0.00%     80.03% # Class of committed instruction
system.cpu0.commit.op_class_0::SimdShiftAcc            0      0.00%     80.03% # Class of committed instruction
system.cpu0.commit.op_class_0::SimdSqrt             0      0.00%     80.03% # Class of committed instruction
system.cpu0.commit.op_class_0::SimdFloatAdd            0      0.00%     80.03% # Class of committed instruction
system.cpu0.commit.op_class_0::SimdFloatAlu            0      0.00%     80.03% # Class of committed instruction
system.cpu0.commit.op_class_0::SimdFloatCmp            0      0.00%     80.03% # Class of committed instruction
system.cpu0.commit.op_class_0::SimdFloatCvt            0      0.00%     80.03% # Class of committed instruction
system.cpu0.commit.op_class_0::SimdFloatDiv            0      0.00%     80.03% # Class of committed instruction
system.cpu0.commit.op_class_0::SimdFloatMisc            0      0.00%     80.03% # Class of committed instruction
system.cpu0.commit.op_class_0::SimdFloatMult            0      0.00%     80.03% # Class of committed instruction
system.cpu0.commit.op_class_0::SimdFloatMultAcc            0      0.00%     80.03% # Class of committed instruction
system.cpu0.commit.op_class_0::SimdFloatSqrt            0      0.00%     80.03% # Class of committed instruction
system.cpu0.commit.op_class_0::MemRead        1896544     18.97%     99.00% # Class of committed instruction
system.cpu0.commit.op_class_0::MemWrite         94502      0.95%     99.95% # Class of committed instruction
system.cpu0.commit.op_class_0::FloatMemRead         5468      0.05%    100.00% # Class of committed instruction
system.cpu0.commit.op_class_0::FloatMemWrite            0      0.00%    100.00% # Class of committed instruction
system.cpu0.commit.op_class_0::IprAccess            0      0.00%    100.00% # Class of committed instruction
system.cpu0.commit.op_class_0::InstPrefetch            0      0.00%    100.00% # Class of committed instruction
system.cpu0.commit.op_class_0::total          9999101                       # Class of committed instruction
system.cpu0.commit.bw_lim_events               162066                       # number cycles where commit BW limit reached
system.cpu0.rob.rob_reads                    54376811                       # The number of ROB reads
system.cpu0.rob.rob_writes                   54859819                       # The number of ROB writes
system.cpu0.timesIdled                            468                       # Number of times that the entire CPU went into an idle state and unscheduled itself
system.cpu0.idleCycles                          10664                       # Total number of cycles that the CPU has spent unscheduled due to idling
system.cpu0.committedInsts                    5003486                       # Number of Instructions Simulated
system.cpu0.committedOps                      9999101                       # Number of Ops (including micro ops) Simulated
system.cpu0.cpi                              6.102683                       # CPI: Cycles Per Instruction
system.cpu0.cpi_total                        6.102683                       # CPI: Total CPI of All Threads
system.cpu0.ipc                              0.163862                       # IPC: Instructions Per Cycle
system.cpu0.ipc_total                        0.163862                       # IPC: Total IPC of All Threads
system.cpu0.int_regfile_reads                17965824                       # number of integer regfile reads
system.cpu0.int_regfile_writes               15595452                       # number of integer regfile writes
system.cpu0.fp_regfile_reads                    91127                       # number of floating regfile reads
system.cpu0.fp_regfile_writes                   45426                       # number of floating regfile writes
system.cpu0.cc_regfile_reads                 11743705                       # number of cc regfile reads
system.cpu0.cc_regfile_writes                 4925220                       # number of cc regfile writes
system.cpu0.misc_regfile_reads                9771212                       # number of misc regfile reads
system.cpu0.dcache.tags.pwrStateResidencyTicks::UNDEFINED  15267344125                       # Cumulative time (in ticks) in various power states
system.cpu0.dcache.tags.replacements          1003048                       # number of replacements
system.cpu0.dcache.tags.tagsinuse                 512                       # Cycle average of tags in use
system.cpu0.dcache.tags.total_refs            1182758                       # Total number of references to valid blocks.
system.cpu0.dcache.tags.sampled_refs          1003048                       # Sample count of references to valid blocks.
system.cpu0.dcache.tags.avg_refs             1.179164                       # Average number of references to valid blocks.
system.cpu0.dcache.tags.warmup_cycle                0                       # Cycle when the warmup percentage was hit.
system.cpu0.dcache.tags.occ_blocks::cpu0.data          512                       # Average occupied blocks per requestor
system.cpu0.dcache.tags.occ_percent::cpu0.data            1                       # Average percentage of cache occupancy
system.cpu0.dcache.tags.occ_percent::total            1                       # Average percentage of cache occupancy
system.cpu0.dcache.tags.occ_task_id_blocks::1024          512                       # Occupied blocks per task id
system.cpu0.dcache.tags.age_task_id_blocks_1024::0          490                       # Occupied blocks per task id
system.cpu0.dcache.tags.age_task_id_blocks_1024::1           22                       # Occupied blocks per task id
system.cpu0.dcache.tags.occ_task_id_percent::1024            1                       # Percentage of cache occupancy per task id
system.cpu0.dcache.tags.tag_accesses         12499516                       # Number of tag accesses
system.cpu0.dcache.tags.data_accesses        12499516                       # Number of data accesses
system.cpu0.dcache.pwrStateResidencyTicks::UNDEFINED  15267344125                       # Cumulative time (in ticks) in various power states
system.cpu0.dcache.ReadReq_hits::cpu0.data      1092977                       # number of ReadReq hits
system.cpu0.dcache.ReadReq_hits::total        1092977                       # number of ReadReq hits
system.cpu0.dcache.WriteReq_hits::cpu0.data        90273                       # number of WriteReq hits
system.cpu0.dcache.WriteReq_hits::total         90273                       # number of WriteReq hits
system.cpu0.dcache.demand_hits::cpu0.data      1183250                       # number of demand (read+write) hits
system.cpu0.dcache.demand_hits::total         1183250                       # number of demand (read+write) hits
system.cpu0.dcache.overall_hits::cpu0.data      1183250                       # number of overall hits
system.cpu0.dcache.overall_hits::total        1183250                       # number of overall hits
system.cpu0.dcache.ReadReq_misses::cpu0.data      1686638                       # number of ReadReq misses
system.cpu0.dcache.ReadReq_misses::total      1686638                       # number of ReadReq misses
system.cpu0.dcache.WriteReq_misses::cpu0.data         4229                       # number of WriteReq misses
system.cpu0.dcache.WriteReq_misses::total         4229                       # number of WriteReq misses
system.cpu0.dcache.demand_misses::cpu0.data      1690867                       # number of demand (read+write) misses
system.cpu0.dcache.demand_misses::total       1690867                       # number of demand (read+write) misses
system.cpu0.dcache.overall_misses::cpu0.data      1690867                       # number of overall misses
system.cpu0.dcache.overall_misses::total      1690867                       # number of overall misses
system.cpu0.dcache.ReadReq_miss_latency::cpu0.data  30034065500                       # number of ReadReq miss cycles
system.cpu0.dcache.ReadReq_miss_latency::total  30034065500                       # number of ReadReq miss cycles
system.cpu0.dcache.WriteReq_miss_latency::cpu0.data    206962490                       # number of WriteReq miss cycles
system.cpu0.dcache.WriteReq_miss_latency::total    206962490                       # number of WriteReq miss cycles
system.cpu0.dcache.demand_miss_latency::cpu0.data  30241027990                       # number of demand (read+write) miss cycles
[...]
system.l2.demand_miss_rate::cpu0.data        0.046562                       # miss rate for demand accesses
system.l2.demand_miss_rate::total            0.046566                       # miss rate for demand accesses
system.l2.overall_miss_rate::cpu0.inst       0.277778                       # miss rate for overall accesses
system.l2.overall_miss_rate::cpu0.data       0.046562                       # miss rate for overall accesses
system.l2.overall_miss_rate::total           0.046566                       # miss rate for overall accesses
system.l2.ReadExReq_avg_miss_latency::cpu0.data 174291.805094                       # average ReadExReq miss latency
system.l2.ReadExReq_avg_miss_latency::total 174291.805094                       # average ReadExReq miss latency
system.l2.ReadCleanReq_avg_miss_latency::cpu0.inst       106500                       # average ReadCleanReq miss latency
system.l2.ReadCleanReq_avg_miss_latency::total       106500                       # average ReadCleanReq miss latency
system.l2.ReadSharedReq_avg_miss_latency::cpu0.data 100976.659898                       # average ReadSharedReq miss latency
system.l2.ReadSharedReq_avg_miss_latency::total 100976.659898                       # average ReadSharedReq miss latency
system.l2.demand_avg_miss_latency::cpu0.inst       106500                       # average overall miss latency
system.l2.demand_avg_miss_latency::cpu0.data 102394.173947                       # average overall miss latency
system.l2.demand_avg_miss_latency::total 102394.613458                       # average overall miss latency
system.l2.overall_avg_miss_latency::cpu0.inst       106500                       # average overall miss latency
system.l2.overall_avg_miss_latency::cpu0.data 102394.173947                       # average overall miss latency
system.l2.overall_avg_miss_latency::total 102394.613458                       # average overall miss latency
system.l2.blocked_cycles::no_mshrs                  0                       # number of cycles access was blocked
system.l2.blocked_cycles::no_targets                0                       # number of cycles access was blocked
system.l2.blocked::no_mshrs                         0                       # number of cycles access was blocked
system.l2.blocked::no_targets                       0                       # number of cycles access was blocked
system.l2.avg_blocked_cycles::no_mshrs            nan                       # average number of cycles each access was blocked
system.l2.avg_blocked_cycles::no_targets          nan                       # average number of cycles each access was blocked
system.l2.writebacks::writebacks                 7421                       # number of writebacks
system.l2.writebacks::total                      7421                       # number of writebacks
system.l2.ReadExReq_mshr_misses::cpu0.data          903                       # number of ReadExReq MSHR misses
system.l2.ReadExReq_mshr_misses::total            903                       # number of ReadExReq MSHR misses
system.l2.ReadCleanReq_mshr_misses::cpu0.inst            5                       # number of ReadCleanReq MSHR misses
system.l2.ReadCleanReq_mshr_misses::total            5                       # number of ReadCleanReq MSHR misses
system.l2.ReadSharedReq_mshr_misses::cpu0.data        45801                       # number of ReadSharedReq MSHR misses
system.l2.ReadSharedReq_mshr_misses::total        45801                       # number of ReadSharedReq MSHR misses
system.l2.demand_mshr_misses::cpu0.inst             5                       # number of demand (read+write) MSHR misses
system.l2.demand_mshr_misses::cpu0.data         46704                       # number of demand (read+write) MSHR misses
system.l2.demand_mshr_misses::total             46709                       # number of demand (read+write) MSHR misses
system.l2.overall_mshr_misses::cpu0.inst            5                       # number of overall MSHR misses
system.l2.overall_mshr_misses::cpu0.data        46704                       # number of overall MSHR misses
system.l2.overall_mshr_misses::total            46709                       # number of overall MSHR misses
system.l2.ReadExReq_mshr_miss_latency::cpu0.data    148355500                       # number of ReadExReq MSHR miss cycles
system.l2.ReadExReq_mshr_miss_latency::total    148355500                       # number of ReadExReq MSHR miss cycles
system.l2.ReadCleanReq_mshr_miss_latency::cpu0.inst       482500                       # number of ReadCleanReq MSHR miss cycles
system.l2.ReadCleanReq_mshr_miss_latency::total       482500                       # number of ReadCleanReq MSHR miss cycles
system.l2.ReadSharedReq_mshr_miss_latency::cpu0.data   4166812000                       # number of ReadSharedReq MSHR miss cycles
system.l2.ReadSharedReq_mshr_miss_latency::total   4166812000                       # number of ReadSharedReq MSHR miss cycles
system.l2.demand_mshr_miss_latency::cpu0.inst       482500                       # number of demand (read+write) MSHR miss cycles
system.l2.demand_mshr_miss_latency::cpu0.data   4315167500                       # number of demand (read+write) MSHR miss cycles
system.l2.demand_mshr_miss_latency::total   4315650000                       # number of demand (read+write) MSHR miss cycles
system.l2.overall_mshr_miss_latency::cpu0.inst       482500                       # number of overall MSHR miss cycles
system.l2.overall_mshr_miss_latency::cpu0.data   4315167500                       # number of overall MSHR miss cycles
system.l2.overall_mshr_miss_latency::total   4315650000                       # number of overall MSHR miss cycles
system.l2.ReadExReq_mshr_miss_rate::cpu0.data     0.214642                       # mshr miss rate for ReadExReq accesses
system.l2.ReadExReq_mshr_miss_rate::total     0.214642                       # mshr miss rate for ReadExReq accesses
system.l2.ReadCleanReq_mshr_miss_rate::cpu0.inst     0.277778                       # mshr miss rate for ReadCleanReq accesses
system.l2.ReadCleanReq_mshr_miss_rate::total     0.277778                       # mshr miss rate for ReadCleanReq accesses
system.l2.ReadSharedReq_mshr_miss_rate::cpu0.data     0.045854                       # mshr miss rate for ReadSharedReq accesses
system.l2.ReadSharedReq_mshr_miss_rate::total     0.045854                       # mshr miss rate for ReadSharedReq accesses
system.l2.demand_mshr_miss_rate::cpu0.inst     0.277778                       # mshr miss rate for demand accesses
system.l2.demand_mshr_miss_rate::cpu0.data     0.046562                       # mshr miss rate for demand accesses
system.l2.demand_mshr_miss_rate::total       0.046566                       # mshr miss rate for demand accesses
system.l2.overall_mshr_miss_rate::cpu0.inst     0.277778                       # mshr miss rate for overall accesses
system.l2.overall_mshr_miss_rate::cpu0.data     0.046562                       # mshr miss rate for overall accesses
system.l2.overall_mshr_miss_rate::total      0.046566                       # mshr miss rate for overall accesses
system.l2.ReadExReq_avg_mshr_miss_latency::cpu0.data 164291.805094                       # average ReadExReq mshr miss latency
system.l2.ReadExReq_avg_mshr_miss_latency::total 164291.805094                       # average ReadExReq mshr miss latency
system.l2.ReadCleanReq_avg_mshr_miss_latency::cpu0.inst        96500                       # average ReadCleanReq mshr miss latency
system.l2.ReadCleanReq_avg_mshr_miss_latency::total        96500                       # average ReadCleanReq mshr miss latency
system.l2.ReadSharedReq_avg_mshr_miss_latency::cpu0.data 90976.441562                       # average ReadSharedReq mshr miss latency
system.l2.ReadSharedReq_avg_mshr_miss_latency::total 90976.441562                       # average ReadSharedReq mshr miss latency
system.l2.demand_avg_mshr_miss_latency::cpu0.inst        96500                       # average overall mshr miss latency
system.l2.demand_avg_mshr_miss_latency::cpu0.data 92393.959832                       # average overall mshr miss latency
system.l2.demand_avg_mshr_miss_latency::total 92394.399366                       # average overall mshr miss latency
system.l2.overall_avg_mshr_miss_latency::cpu0.inst        96500                       # average overall mshr miss latency
system.l2.overall_avg_mshr_miss_latency::cpu0.data 92393.959832                       # average overall mshr miss latency
system.l2.overall_avg_mshr_miss_latency::total 92394.399366                       # average overall mshr miss latency
system.membus.snoop_filter.tot_requests         93421                       # Total number of requests made to the snoop filter.
system.membus.snoop_filter.hit_single_requests        46713                       # Number of requests hitting in the snoop filter with a single holder of the requested data.
system.membus.snoop_filter.hit_multi_requests            0                       # Number of requests hitting in the snoop filter with multiple (>1) holders of the requested data.
system.membus.snoop_filter.tot_snoops               0                       # Total number of snoops made to the snoop filter.
system.membus.snoop_filter.hit_single_snoops            0                       # Number of snoops hitting in the snoop filter with a single holder of the requested data.
system.membus.snoop_filter.hit_multi_snoops            0                       # Number of snoops hitting in the snoop filter with multiple (>1) holders of the requested data.
system.membus.pwrStateResidencyTicks::UNDEFINED  15267344125                       # Cumulative time (in ticks) in various power states
system.membus.trans_dist::ReadResp              45807                       # Transaction distribution
system.membus.trans_dist::WritebackDirty         7421                       # Transaction distribution
system.membus.trans_dist::CleanEvict            39291                       # Transaction distribution
system.membus.trans_dist::ReadExReq               903                       # Transaction distribution
system.membus.trans_dist::ReadExResp              903                       # Transaction distribution
system.membus.trans_dist::ReadSharedReq         45806                       # Transaction distribution
system.membus.pkt_count_system.l2.mem_side::system.mem_ctrls.port       140131                       # Packet count per connected master and slave (bytes)
system.membus.pkt_count_system.l2.mem_side::total       140131                       # Packet count per connected master and slave (bytes)
system.membus.pkt_count::total                 140131                       # Packet count per connected master and slave (bytes)
system.membus.pkt_size_system.l2.mem_side::system.mem_ctrls.port      3464384                       # Cumulative packet size per connected master and slave (bytes)
system.membus.pkt_size_system.l2.mem_side::total      3464384                       # Cumulative packet size per connected master and slave (bytes)
system.membus.pkt_size::total                 3464384                       # Cumulative packet size per connected master and slave (bytes)
system.membus.snoops                                0                       # Total snoops (count)
system.membus.snoopTraffic                          0                       # Total snoop traffic (bytes)
system.membus.snoop_fanout::samples             46709                       # Request fanout histogram
system.membus.snoop_fanout::mean                    0                       # Request fanout histogram
system.membus.snoop_fanout::stdev                   0                       # Request fanout histogram
system.membus.snoop_fanout::underflows              0      0.00%      0.00% # Request fanout histogram
system.membus.snoop_fanout::0                   46709    100.00%    100.00% # Request fanout histogram
system.membus.snoop_fanout::1                       0      0.00%    100.00% # Request fanout histogram
system.membus.snoop_fanout::overflows               0      0.00%    100.00% # Request fanout histogram
system.membus.snoop_fanout::min_value               0                       # Request fanout histogram
system.membus.snoop_fanout::max_value               0                       # Request fanout histogram
system.membus.snoop_fanout::total               46709                       # Request fanout histogram
system.membus.reqLayer12.occupancy          136163500                       # Layer occupancy (ticks)
system.membus.reqLayer12.utilization              0.9                       # Layer utilization (%)
system.membus.respLayer1.occupancy          256810500                       # Layer occupancy (ticks)
system.membus.respLayer1.utilization              1.7                       # Layer utilization (%)
system.tol2bus.snoop_filter.tot_requests      2006131                       # Total number of requests made to the snoop filter.
system.tol2bus.snoop_filter.hit_single_requests      1003066                       # Number of requests hitting in the snoop filter with a single holder of the requested data.
system.tol2bus.snoop_filter.hit_multi_requests         2191                       # Number of requests hitting in the snoop filter with multiple (>1) holders of the requested data.
system.tol2bus.snoop_filter.tot_snoops              7                       # Total number of snoops made to the snoop filter.
system.tol2bus.snoop_filter.hit_single_snoops            7                       # Number of snoops hitting in the snoop filter with a single holder of the requested data.
system.tol2bus.snoop_filter.hit_multi_snoops            0                       # Number of snoops hitting in the snoop filter with multiple (>1) holders of the requested data.
system.tol2bus.pwrStateResidencyTicks::UNDEFINED  15267344125                       # Cumulative time (in ticks) in various power states
system.tol2bus.trans_dist::ReadResp            998859                       # Transaction distribution
system.tol2bus.trans_dist::WritebackDirty       522426                       # Transaction distribution
system.tol2bus.trans_dist::WritebackClean           18                       # Transaction distribution
system.tol2bus.trans_dist::CleanEvict          527341                       # Transaction distribution
system.tol2bus.trans_dist::ReadExReq             4207                       # Transaction distribution
system.tol2bus.trans_dist::ReadExResp            4207                       # Transaction distribution
system.tol2bus.trans_dist::ReadCleanReq            18                       # Transaction distribution
system.tol2bus.trans_dist::ReadSharedReq       998840                       # Transaction distribution
system.tol2bus.pkt_count_system.cpu0.icache.mem_side::system.l2.cpu_side           54                       # Packet count per connected master and slave (bytes)
system.tol2bus.pkt_count_system.cpu0.dcache.mem_side::system.l2.cpu_side      3009143                       # Packet count per connected master and slave (bytes)
system.tol2bus.pkt_count::total               3009197                       # Packet count per connected master and slave (bytes)
system.tol2bus.pkt_size_system.cpu0.icache.mem_side::system.l2.cpu_side         2304                       # Cumulative packet size per connected master and slave (bytes)
system.tol2bus.pkt_size_system.cpu0.dcache.mem_side::system.l2.cpu_side     97155392                       # Cumulative packet size per connected master and slave (bytes)
system.tol2bus.pkt_size::total               97157696                       # Cumulative packet size per connected master and slave (bytes)
system.tol2bus.snoops                           46719                       # Total snoops (count)
system.tol2bus.snoopTraffic                    474944                       # Total snoop traffic (bytes)
system.tol2bus.snoop_fanout::samples          1049784                       # Request fanout histogram
system.tol2bus.snoop_fanout::mean            0.002094                       # Request fanout histogram
system.tol2bus.snoop_fanout::stdev           0.045710                       # Request fanout histogram
system.tol2bus.snoop_fanout::underflows             0      0.00%      0.00% # Request fanout histogram
system.tol2bus.snoop_fanout::0                1047586     99.79%     99.79% # Request fanout histogram
system.tol2bus.snoop_fanout::1                   2198      0.21%    100.00% # Request fanout histogram
system.tol2bus.snoop_fanout::2                      0      0.00%    100.00% # Request fanout histogram
system.tol2bus.snoop_fanout::3                      0      0.00%    100.00% # Request fanout histogram
system.tol2bus.snoop_fanout::4                      0      0.00%    100.00% # Request fanout histogram
system.tol2bus.snoop_fanout::5                      0      0.00%    100.00% # Request fanout histogram
system.tol2bus.snoop_fanout::6                      0      0.00%    100.00% # Request fanout histogram
system.tol2bus.snoop_fanout::7                      0      0.00%    100.00% # Request fanout histogram
system.tol2bus.snoop_fanout::8                      0      0.00%    100.00% # Request fanout histogram
system.tol2bus.snoop_fanout::9                      0      0.00%    100.00% # Request fanout histogram
system.tol2bus.snoop_fanout::10                     0      0.00%    100.00% # Request fanout histogram
system.tol2bus.snoop_fanout::11                     0      0.00%    100.00% # Request fanout histogram
system.tol2bus.snoop_fanout::12                     0      0.00%    100.00% # Request fanout histogram
system.tol2bus.snoop_fanout::13                     0      0.00%    100.00% # Request fanout histogram
system.tol2bus.snoop_fanout::14                     0      0.00%    100.00% # Request fanout histogram
system.tol2bus.snoop_fanout::15                     0      0.00%    100.00% # Request fanout histogram
system.tol2bus.snoop_fanout::16                     0      0.00%    100.00% # Request fanout histogram
system.tol2bus.snoop_fanout::17                     0      0.00%    100.00% # Request fanout histogram
system.tol2bus.snoop_fanout::18                     0      0.00%    100.00% # Request fanout histogram
system.tol2bus.snoop_fanout::19                     0      0.00%    100.00% # Request fanout histogram
system.tol2bus.snoop_fanout::20                     0      0.00%    100.00% # Request fanout histogram
system.tol2bus.snoop_fanout::21                     0      0.00%    100.00% # Request fanout histogram
system.tol2bus.snoop_fanout::22                     0      0.00%    100.00% # Request fanout histogram
system.tol2bus.snoop_fanout::23                     0      0.00%    100.00% # Request fanout histogram
system.tol2bus.snoop_fanout::24                     0      0.00%    100.00% # Request fanout histogram
system.tol2bus.snoop_fanout::overflows              0      0.00%    100.00% # Request fanout histogram
system.tol2bus.snoop_fanout::min_value              0                       # Request fanout histogram
system.tol2bus.snoop_fanout::max_value              1                       # Request fanout histogram
system.tol2bus.snoop_fanout::total            1049784                       # Request fanout histogram
system.tol2bus.reqLayer0.occupancy         1518088500                       # Layer occupancy (ticks)
system.tol2bus.reqLayer0.utilization              9.9                       # Layer utilization (%)
system.tol2bus.respLayer0.occupancy             27000                       # Layer occupancy (ticks)
system.tol2bus.respLayer0.utilization             0.0                       # Layer utilization (%)
system.tol2bus.respLayer1.occupancy        1504572000                       # Layer occupancy (ticks)
system.tol2bus.respLayer1.utilization             9.9                       # Layer utilization (%)

---------- End Simulation Statistics   ----------
