
---------- Begin Simulation Statistics ----------
sim_seconds                                  0.015267                       # Number of seconds simulated
sim_ticks                                 15267344125                       # Number of ticks simulated
final_tick                               1603071133125                       # Number of ticks from beginning of simulation (restored from checkpoints and never reset)
sim_freq                                 1000000000000                       # Frequency of simulated ticks
host_inst_rate                               16077495                       # Simulator instruction rate (inst/s)
host_op_rate                                 29288570                       # Simulator op (including micro ops) rate (op/s)
host_tick_rate                               66930623                       # Simulator tick rate (ticks/s)
host_mem_usage                                3428064                       # Number of bytes of host memory used
host_seconds                                   228.11                       # Real time elapsed on the host
sim_insts                                  3667388956                       # Number of instructions simulated
sim_ops                                    6680927695                       # Number of ops (including micro ops) simulated
system.voltage_domain.voltage                       1                       # Voltage in Volts
system.clk_domain.clock                          1000                       # Clock period in ticks
system.mem_ctrls.pwrStateResidencyTicks::UNDEFINED  15267344125                       # Cumulative time (in ticks) in various power states
system.mem_ctrls.bytes_read::cpu0.data         914048                       # Number of bytes read from this memory
system.mem_ctrls.bytes_read::total             914048                       # Number of bytes read from this memory
system.mem_ctrls.bytes_written::writebacks       848704                       # Number of bytes written to this memory
system.mem_ctrls.bytes_written::total          848704                       # Number of bytes written to this memory
system.mem_ctrls.num_reads::cpu0.data           14282                       # Number of read requests responded to by this memory
system.mem_ctrls.num_reads::total               14282                       # Number of read requests responded to by this memory
system.mem_ctrls.num_writes::writebacks         13261                       # Number of write requests responded to by this memory
system.mem_ctrls.num_writes::total              13261                       # Number of write requests responded to by this memory
system.mem_ctrls.bw_read::cpu0.data          59869483                       # Total read bandwidth from this memory (bytes/s)
system.mem_ctrls.bw_read::total              59869483                       # Total read bandwidth from this memory (bytes/s)
system.mem_ctrls.bw_write::writebacks        55589498                       # Write bandwidth from this memory (bytes/s)
system.mem_ctrls.bw_write::total             55589498                       # Write bandwidth from this memory (bytes/s)
system.mem_ctrls.bw_total::writebacks        55589498                       # Total bandwidth to/from this memory (bytes/s)
system.mem_ctrls.bw_total::cpu0.data         59869483                       # Total bandwidth to/from this memory (bytes/s)
system.mem_ctrls.bw_total::total            115458981                       # Total bandwidth to/from this memory (bytes/s)
system.mem_ctrls.readReqs                       14282                       # Number of read requests accepted
system.mem_ctrls.writeReqs                      13261                       # Number of write requests accepted
system.mem_ctrls.readBursts                     14282                       # Number of DRAM read bursts, including those serviced by the write queue
system.mem_ctrls.writeBursts                    13261                       # Number of DRAM write bursts, including those merged in the write queue
system.mem_ctrls.bytesReadDRAM                 914048                       # Total number of bytes read from DRAM
system.mem_ctrls.bytesReadWrQ                       0                       # Total number of bytes read from write queue
system.mem_ctrls.bytesWritten                  848064                       # Total number of bytes written to DRAM
system.mem_ctrls.bytesReadSys                  914048                       # Total read bytes from the system interface side
system.mem_ctrls.bytesWrittenSys               848704                       # Total written bytes from the system interface side
system.mem_ctrls.servicedByWrQ                      0                       # Number of DRAM read bursts serviced by the write queue
system.mem_ctrls.mergedWrBursts                     0                       # Number of DRAM write bursts merged with an existing one
system.mem_ctrls.neitherReadNorWriteReqs            0                       # Number of requests that are neither read nor write
system.mem_ctrls.perBankRdBursts::0               941                       # Per bank write bursts
system.mem_ctrls.perBankRdBursts::1               941                       # Per bank write bursts
system.mem_ctrls.perBankRdBursts::2               962                       # Per bank write bursts
system.mem_ctrls.perBankRdBursts::3               919                       # Per bank write bursts
system.mem_ctrls.perBankRdBursts::4               896                       # Per bank write bursts
system.mem_ctrls.perBankRdBursts::5               896                       # Per bank write bursts
system.mem_ctrls.perBankRdBursts::6               896                       # Per bank write bursts
system.mem_ctrls.perBankRdBursts::7               812                       # Per bank write bursts
system.mem_ctrls.perBankRdBursts::8               791                       # Per bank write bursts
system.mem_ctrls.perBankRdBursts::9               768                       # Per bank write bursts
system.mem_ctrls.perBankRdBursts::10              893                       # Per bank write bursts
system.mem_ctrls.perBankRdBursts::11              896                       # Per bank write bursts
system.mem_ctrls.perBankRdBursts::12              896                       # Per bank write bursts
system.mem_ctrls.perBankRdBursts::13              918                       # Per bank write bursts
system.mem_ctrls.perBankRdBursts::14              919                       # Per bank write bursts
system.mem_ctrls.perBankRdBursts::15              938                       # Per bank write bursts
system.mem_ctrls.perBankWrBursts::0               930                       # Per bank write bursts
system.mem_ctrls.perBankWrBursts::1               941                       # Per bank write bursts
system.mem_ctrls.perBankWrBursts::2               962                       # Per bank write bursts
system.mem_ctrls.perBankWrBursts::3               795                       # Per bank write bursts
system.mem_ctrls.perBankWrBursts::4               767                       # Per bank write bursts
system.mem_ctrls.perBankWrBursts::5               768                       # Per bank write bursts
system.mem_ctrls.perBankWrBursts::6               758                       # Per bank write bursts
system.mem_ctrls.perBankWrBursts::7               666                       # Per bank write bursts
system.mem_ctrls.perBankWrBursts::8               663                       # Per bank write bursts
system.mem_ctrls.perBankWrBursts::9               653                       # Per bank write bursts
system.mem_ctrls.perBankWrBursts::10              824                       # Per bank write bursts
system.mem_ctrls.perBankWrBursts::11              888                       # Per bank write bursts
system.mem_ctrls.perBankWrBursts::12              876                       # Per bank write bursts
system.mem_ctrls.perBankWrBursts::13              918                       # Per bank write bursts
system.mem_ctrls.perBankWrBursts::14              919                       # Per bank write bursts
system.mem_ctrls.perBankWrBursts::15              923                       # Per bank write bursts
system.mem_ctrls.numRdRetry                         0                       # Number of times read queue was full causing retry
system.mem_ctrls.numWrRetry                         0                       # Number of times write queue was full causing retry
system.mem_ctrls.totGap                   15266656000                       # Total gap between requests
system.mem_ctrls.readPktSize::0                     0                       # Read request sizes (log2)
system.mem_ctrls.readPktSize::1                     0                       # Read request sizes (log2)
system.mem_ctrls.readPktSize::2                     0                       # Read request sizes (log2)
system.mem_ctrls.readPktSize::3                     0                       # Read request sizes (log2)
system.mem_ctrls.readPktSize::4                     0                       # Read request sizes (log2)
system.mem_ctrls.readPktSize::5                     0                       # Read request sizes (log2)
system.mem_ctrls.readPktSize::6                 14282                       # Read request sizes (log2)
system.mem_ctrls.writePktSize::0                    0                       # Write request sizes (log2)
system.mem_ctrls.writePktSize::1                    0                       # Write request sizes (log2)
system.mem_ctrls.writePktSize::2                    0                       # Write request sizes (log2)
system.mem_ctrls.writePktSize::3                    0                       # Write request sizes (log2)
system.mem_ctrls.writePktSize::4                    0                       # Write request sizes (log2)
system.mem_ctrls.writePktSize::5                    0                       # Write request sizes (log2)
system.mem_ctrls.writePktSize::6                13261                       # Write request sizes (log2)
system.mem_ctrls.rdQLenPdf::0                   14282                       # What read queue length does an incoming req see
system.mem_ctrls.rdQLenPdf::1                       0                       # What read queue length does an incoming req see
system.mem_ctrls.rdQLenPdf::2                       0                       # What read queue length does an incoming req see
system.mem_ctrls.rdQLenPdf::3                       0                       # What read queue length does an incoming req see
system.mem_ctrls.rdQLenPdf::4                       0                       # What read queue length does an incoming req see
system.mem_ctrls.rdQLenPdf::5                       0                       # What read queue length does an incoming req see
system.mem_ctrls.rdQLenPdf::6                       0                       # What read queue length does an incoming req see
system.mem_ctrls.rdQLenPdf::7                       0                       # What read queue length does an incoming req see
system.mem_ctrls.rdQLenPdf::8                       0                       # What read queue length does an incoming req see
system.mem_ctrls.rdQLenPdf::9                       0                       # What read queue length does an incoming req see
system.mem_ctrls.rdQLenPdf::10                      0                       # What read queue length does an incoming req see
system.mem_ctrls.rdQLenPdf::11                      0                       # What read queue length does an incoming req see
system.mem_ctrls.rdQLenPdf::12                      0                       # What read queue length does an incoming req see
system.mem_ctrls.rdQLenPdf::13                      0                       # What read queue length does an incoming req see
system.mem_ctrls.rdQLenPdf::14                      0                       # What read queue length does an incoming req see
system.mem_ctrls.rdQLenPdf::15                      0                       # What read queue length does an incoming req see
system.mem_ctrls.rdQLenPdf::16                      0                       # What read queue length does an incoming req see
system.mem_ctrls.rdQLenPdf::17                      0                       # What read queue length does an incoming req see
system.mem_ctrls.rdQLenPdf::18                      0                       # What read queue length does an incoming req see
system.mem_ctrls.rdQLenPdf::19                      0                       # What read queue length does an incoming req see
system.mem_ctrls.rdQLenPdf::20                      0                       # What read queue length does an incoming req see
system.mem_ctrls.rdQLenPdf::21                      0                       # What read queue length does an incoming req see
system.mem_ctrls.rdQLenPdf::22                      0                       # What read queue length does an incoming req see
system.mem_ctrls.rdQLenPdf::23                      0                       # What read queue length does an incoming req see
system.mem_ctrls.rdQLenPdf::24                      0                       # What read queue length does an incoming req see
system.mem_ctrls.rdQLenPdf::25                      0                       # What read queue length does an incoming req see
system.mem_ctrls.rdQLenPdf::26                      0                       # What read queue length does an incoming req see
system.mem_ctrls.rdQLenPdf::27                      0                       # What read queue length does an incoming req see
system.mem_ctrls.rdQLenPdf::28                      0                       # What read queue length does an incoming req see
system.mem_ctrls.rdQLenPdf::29                      0                       # What read queue length does an incoming req see
system.mem_ctrls.rdQLenPdf::30                      0                       # What read queue length does an incoming req see
system.mem_ctrls.rdQLenPdf::31                      0                       # What read queue length does an incoming req see
system.mem_ctrls.wrQLenPdf::0                       0                       # What write queue length does an incoming req see
system.mem_ctrls.wrQLenPdf::1                       0                       # What write queue length does an incoming req see
system.mem_ctrls.wrQLenPdf::2                       0                       # What write queue length does an incoming req see
system.mem_ctrls.wrQLenPdf::3                       0                       # What write queue length does an incoming req see
system.mem_ctrls.wrQLenPdf::4                       0                       # What write queue length does an incoming req see
system.mem_ctrls.wrQLenPdf::5                       0                       # What write queue length does an incoming req see
system.mem_ctrls.wrQLenPdf::6                       0                       # What write queue length does an incoming req see
system.mem_ctrls.wrQLenPdf::7                       0                       # What write queue length does an incoming req see
system.mem_ctrls.wrQLenPdf::8                       0                       # What write queue length does an incoming req see
system.mem_ctrls.wrQLenPdf::9                       0                       # What write queue length does an incoming req see
system.mem_ctrls.wrQLenPdf::10                      0                       # What write queue length does an incoming req see
system.mem_ctrls.wrQLenPdf::11                      0                       # What write queue length does an incoming req see
system.mem_ctrls.wrQLenPdf::12                      0                       # What write queue length does an incoming req see
system.mem_ctrls.wrQLenPdf::13                      0                       # What write queue length does an incoming req see
system.mem_ctrls.wrQLenPdf::14                      0                       # What write queue length does an incoming req see
system.mem_ctrls.wrQLenPdf::15                    721                       # What write queue length does an incoming req see
system.mem_ctrls.wrQLenPdf::16                    723                       # What write queue length does an incoming req see
system.mem_ctrls.wrQLenPdf::17                    739                       # What write queue length does an incoming req see
system.mem_ctrls.wrQLenPdf::18                    739                       # What write queue length does an incoming req see
system.mem_ctrls.wrQLenPdf::19                    739                       # What write queue length does an incoming req see
system.mem_ctrls.wrQLenPdf::20                    739                       # What write queue length does an incoming req see
system.mem_ctrls.wrQLenPdf::21                    739                       # What write queue length does an incoming req see
system.mem_ctrls.wrQLenPdf::22                    739                       # What write queue length does an incoming req see
system.mem_ctrls.wrQLenPdf::23                    739                       # What write queue length does an incoming req see
system.mem_ctrls.wrQLenPdf::24                    739                       # What write queue length does an incoming req see
system.mem_ctrls.wrQLenPdf::25                    739                       # What write queue length does an incoming req see
system.mem_ctrls.wrQLenPdf::26                    738                       # What write queue length does an incoming req see
system.mem_ctrls.wrQLenPdf::27                    738                       # What write queue length does an incoming req see
system.mem_ctrls.wrQLenPdf::28                    738                       # What write queue length does an incoming req see
system.mem_ctrls.wrQLenPdf::29                    738                       # What write queue length does an incoming req see
system.mem_ctrls.wrQLenPdf::30                    738                       # What write queue length does an incoming req see
system.mem_ctrls.wrQLenPdf::31                    738                       # What write queue length does an incoming req see
system.mem_ctrls.wrQLenPdf::32                    738                       # What write queue length does an incoming req see
system.mem_ctrls.wrQLenPdf::33                      0                       # What write queue length does an incoming req see
system.mem_ctrls.wrQLenPdf::34                      0                       # What write queue length does an incoming req see
system.mem_ctrls.wrQLenPdf::35                      0                       # What write queue length does an incoming req see
system.mem_ctrls.wrQLenPdf::36                      0                       # What write queue length does an incoming req see
system.mem_ctrls.wrQLenPdf::37                      0                       # What write queue length does an incoming req see
system.mem_ctrls.wrQLenPdf::38                      0                       # What write queue length does an incoming req see
system.mem_ctrls.wrQLenPdf::39                      0                       # What write queue length does an incoming req see
system.mem_ctrls.wrQLenPdf::40                      0                       # What write queue length does an incoming req see
system.mem_ctrls.wrQLenPdf::41                      0                       # What write queue length does an incoming req see
system.mem_ctrls.wrQLenPdf::42                      0                       # What write queue length does an incoming req see
system.mem_ctrls.wrQLenPdf::43                      0                       # What write queue length does an incoming req see
system.mem_ctrls.wrQLenPdf::44                      0                       # What write queue length does an incoming req see
system.mem_ctrls.wrQLenPdf::45                      0                       # What write queue length does an incoming req see
system.mem_ctrls.wrQLenPdf::46                      0                       # What write queue length does an incoming req see
system.mem_ctrls.wrQLenPdf::47                      0                       # What write queue length does an incoming req see
system.mem_ctrls.wrQLenPdf::48                      0                       # What write queue length does an incoming req see
system.mem_ctrls.wrQLenPdf::49                      0                       # What write queue length does an incoming req see
system.mem_ctrls.wrQLenPdf::50                      0                       # What write queue length does an incoming req see
system.mem_ctrls.wrQLenPdf::51                      0                       # What write queue length does an incoming req see
system.mem_ctrls.wrQLenPdf::52                      0                       # What write queue length does an incoming req see
system.mem_ctrls.wrQLenPdf::53                      0                       # What write queue length does an incoming req see
system.mem_ctrls.wrQLenPdf::54                      0                       # What write queue length does an incoming req see
system.mem_ctrls.wrQLenPdf::55                      0                       # What write queue length does an incoming req see
system.mem_ctrls.wrQLenPdf::56                      0                       # What write queue length does an incoming req see
system.mem_ctrls.wrQLenPdf::57                      0                       # What write queue length does an incoming req see
system.mem_ctrls.wrQLenPdf::58                      0                       # What write queue length does an incoming req see
system.mem_ctrls.wrQLenPdf::59                      0                       # What write queue length does an incoming req see
system.mem_ctrls.wrQLenPdf::60                      0                       # What write queue length does an incoming req see
system.mem_ctrls.wrQLenPdf::61                      0                       # What write queue length does an incoming req see
system.mem_ctrls.wrQLenPdf::62                      0                       # What write queue length does an incoming req see
system.mem_ctrls.wrQLenPdf::63                      0                       # What write queue length does an incoming req see
system.mem_ctrls.bytesPerActivate::samples         5891                       # Bytes accessed per row activation
system.mem_ctrls.bytesPerActivate::mean    299.293159                       # Bytes accessed per row activation
system.mem_ctrls.bytesPerActivate::gmean   185.701941                       # Bytes accessed per row activation
system.mem_ctrls.bytesPerActivate::stdev   293.660812                       # Bytes accessed per row activation
system.mem_ctrls.bytesPerActivate::0-127         2328     39.52%     39.52% # Bytes accessed per row activation
system.mem_ctrls.bytesPerActivate::128-255          809     13.73%     53.25% # Bytes accessed per row activation
system.mem_ctrls.bytesPerActivate::256-383          531      9.01%     62.26% # Bytes accessed per row activation
system.mem_ctrls.bytesPerActivate::384-511         1472     24.99%     87.25% # Bytes accessed per row activation
system.mem_ctrls.bytesPerActivate::512-639           34      0.58%     87.83% # Bytes accessed per row activation
system.mem_ctrls.bytesPerActivate::640-767           60      1.02%     88.85% # Bytes accessed per row activation
system.mem_ctrls.bytesPerActivate::768-895           41      0.70%     89.54% # Bytes accessed per row activation
system.mem_ctrls.bytesPerActivate::896-1023           66      1.12%     90.66% # Bytes accessed per row activation
system.mem_ctrls.bytesPerActivate::1024-1151          550      9.34%    100.00% # Bytes accessed per row activation
system.mem_ctrls.bytesPerActivate::total         5891                       # Bytes accessed per row activation
system.mem_ctrls.rdPerTurnAround::samples          738                       # Reads before turning the bus around for writes
system.mem_ctrls.rdPerTurnAround::mean      19.338753                       # Reads before turning the bus around for writes
system.mem_ctrls.rdPerTurnAround::gmean     18.328530                       # Reads before turning the bus around for writes
system.mem_ctrls.rdPerTurnAround::stdev     15.414196                       # Reads before turning the bus around for writes
system.mem_ctrls.rdPerTurnAround::16-23           730     98.92%     98.92% # Reads before turning the bus around for writes
system.mem_ctrls.rdPerTurnAround::40-47             2      0.27%     99.19% # Reads before turning the bus around for writes
system.mem_ctrls.rdPerTurnAround::56-63             1      0.14%     99.32% # Reads before turning the bus around for writes
system.mem_ctrls.rdPerTurnAround::144-151            1      0.14%     99.46% # Reads before turning the bus around for writes
system.mem_ctrls.rdPerTurnAround::192-199            1      0.14%     99.59% # Reads before turning the bus around for writes
system.mem_ctrls.rdPerTurnAround::208-215            1      0.14%     99.73% # Reads before turning the bus around for writes
system.mem_ctrls.rdPerTurnAround::216-223            1      0.14%     99.86% # Reads before turning the bus around for writes
system.mem_ctrls.rdPerTurnAround::232-239            1      0.14%    100.00% # Reads before turning the bus around for writes
system.mem_ctrls.rdPerTurnAround::total           738                       # Reads before turning the bus around for writes
system.mem_ctrls.wrPerTurnAround::samples          738                       # Writes before turning the bus around for reads
system.mem_ctrls.wrPerTurnAround::mean      17.955285                       # Writes before turning the bus around for reads
system.mem_ctrls.wrPerTurnAround::gmean     17.952704                       # Writes before turning the bus around for reads
system.mem_ctrls.wrPerTurnAround::stdev      0.293587                       # Writes before turning the bus around for reads
system.mem_ctrls.wrPerTurnAround::16               16      2.17%      2.17% # Writes before turning the bus around for reads
system.mem_ctrls.wrPerTurnAround::17                1      0.14%      2.30% # Writes before turning the bus around for reads
system.mem_ctrls.wrPerTurnAround::18              721     97.70%    100.00% # Writes before turning the bus around for reads
system.mem_ctrls.wrPerTurnAround::total           738                       # Writes before turning the bus around for reads
system.mem_ctrls.totQLat                    330924000                       # Total ticks spent queuing
system.mem_ctrls.totMemAccLat               598711500                       # Total ticks spent from burst creation until serviced by the DRAM
system.mem_ctrls.totBusLat                   71410000                       # Total ticks spent in databus transfers
system.mem_ctrls.avgQLat                     23170.70                       # Average queueing delay per DRAM burst
system.mem_ctrls.avgBusLat                    5000.00                       # Average bus latency per DRAM burst
system.mem_ctrls.avgMemAccLat                41920.70                       # Average memory access latency per DRAM burst
system.mem_ctrls.avgRdBW                        59.87                       # Average DRAM read bandwidth in MiByte/s
system.mem_ctrls.avgWrBW                        55.55                       # Average achieved write bandwidth in MiByte/s
system.mem_ctrls.avgRdBWSys                     59.87                       # Average system read bandwidth in MiByte/s
system.mem_ctrls.avgWrBWSys                     55.59                       # Average system write bandwidth in MiByte/s
system.mem_ctrls.peakBW                      12800.00                       # Theoretical peak bandwidth in MiByte/s
system.mem_ctrls.busUtil                         0.90                       # Data bus utilization in percentage
system.mem_ctrls.busUtilRead                     0.47                       # Data bus utilization in percentage for reads
system.mem_ctrls.busUtilWrite                    0.43                       # Data bus utilization in percentage for writes
system.mem_ctrls.avgRdQLen                       1.00                       # Average read queue length when enqueuing
system.mem_ctrls.avgWrQLen                      24.59                       # Average write queue length when enqueuing
system.mem_ctrls.readRowHits                    10391                       # Number of row buffer hits during reads
system.mem_ctrls.writeRowHits                   11252                       # Number of row buffer hits during writes
system.mem_ctrls.readRowHitRate                 72.76                       # Row buffer hit rate for reads
system.mem_ctrls.writeRowHitRate                84.85                       # Row buffer hit rate for writes
system.mem_ctrls.avgGap                     554284.43                       # Average gap between requests
system.mem_ctrls.pageHitRate                    78.58                       # Row buffer hit rate, read and write combined
system.mem_ctrls_0.actEnergy                 25775400                       # Energy for activate commands per rank (pJ)
system.mem_ctrls_0.preEnergy                 13696155                       # Energy for precharge commands per rank (pJ)
system.mem_ctrls_0.readEnergy                51857820                       # Energy for read commands per rank (pJ)
system.mem_ctrls_0.writeEnergy               34384140                       # Energy for write commands per rank (pJ)
system.mem_ctrls_0.refreshEnergy         1290129360.000000                       # Energy for refresh commands per rank (pJ)
system.mem_ctrls_0.actBackEnergy            804543600                       # Energy for active background per rank (pJ)
system.mem_ctrls_0.preBackEnergy             57647040                       # Energy for precharge background per rank (pJ)
system.mem_ctrls_0.actPowerDownEnergy      3707575260                       # Energy for active power-down per rank (pJ)
system.mem_ctrls_0.prePowerDownEnergy      1500210240                       # Energy for precharge power-down per rank (pJ)
system.mem_ctrls_0.selfRefreshEnergy        497941500                       # Energy for self refresh per rank (pJ)
system.mem_ctrls_0.totalEnergy             7984030575                       # Total energy per rank (pJ)
system.mem_ctrls_0.averagePower            522.948229                       # Core power per rank (mW)
system.mem_ctrls_0.totalIdleTime          13351136750                       # Total Idle time Per DRAM Rank
system.mem_ctrls_0.memoryStateTime::IDLE     96546000                       # Time in different power states
system.mem_ctrls_0.memoryStateTime::REF     547744000                       # Time in different power states
system.mem_ctrls_0.memoryStateTime::SREF   1314819500                       # Time in different power states
system.mem_ctrls_0.memoryStateTime::PRE_PDN   3906691000                       # Time in different power states
system.mem_ctrls_0.memoryStateTime::ACT    1271033500                       # Time in different power states
system.mem_ctrls_0.memoryStateTime::ACT_PDN   8130510125                       # Time in different power states
system.mem_ctrls_1.actEnergy                 16279200                       # Energy for activate commands per rank (pJ)
system.mem_ctrls_1.preEnergy                  8660190                       # Energy for precharge commands per rank (pJ)
system.mem_ctrls_1.readEnergy                50115660                       # Energy for read commands per rank (pJ)
system.mem_ctrls_1.writeEnergy               34786080                       # Energy for write commands per rank (pJ)
system.mem_ctrls_1.refreshEnergy         929335680.000000                       # Energy for refresh commands per rank (pJ)
system.mem_ctrls_1.actBackEnergy            454038630                       # Energy for active background per rank (pJ)
system.mem_ctrls_1.preBackEnergy             42587040                       # Energy for precharge background per rank (pJ)
system.mem_ctrls_1.actPowerDownEnergy      3206349750                       # Energy for active power-down per rank (pJ)
system.mem_ctrls_1.prePowerDownEnergy       797977920                       # Energy for precharge power-down per rank (pJ)
system.mem_ctrls_1.selfRefreshEnergy       1331020800                       # Energy for self refresh per rank (pJ)
system.mem_ctrls_1.totalEnergy             6871301160                       # Total energy per rank (pJ)
system.mem_ctrls_1.averagePower            450.065257                       # Core power per rank (mW)
system.mem_ctrls_1.totalIdleTime          14156322250                       # Total Idle time Per DRAM Rank
system.mem_ctrls_1.memoryStateTime::IDLE     64362000                       # Time in different power states
system.mem_ctrls_1.memoryStateTime::REF     394428000                       # Time in different power states
system.mem_ctrls_1.memoryStateTime::SREF   5050861875                       # Time in different power states
system.mem_ctrls_1.memoryStateTime::PRE_PDN   2077928750                       # Time in different power states
system.mem_ctrls_1.memoryStateTime::ACT     648221000                       # Time in different power states
system.mem_ctrls_1.memoryStateTime::ACT_PDN   7031542500                       # Time in different power states
system.pwrStateResidencyTicks::UNDEFINED  15267344125                       # Cumulative time (in ticks) in various power states
system.cpu0.branchPred.lookups                5260702                       # Number of BP lookups
system.cpu0.branchPred.condPredicted          5260702                       # Number of conditional branches predicted
system.cpu0.branchPred.condIncorrect           106732                       # Number of conditional branches incorrect
system.cpu0.branchPred.BTBLookups             4218746                       # Number of BTB lookups
system.cpu0.branchPred.BTBHits                      0                       # Number of BTB hits
system.cpu0.branchPred.BTBCorrect                   0                       # Number of correct BTB predictions (this stat may not work properly.
system.cpu0.branchPred.BTBHitPct             0.000000                       # BTB Hit Percentage
system.cpu0.branchPred.usedRAS                 731687                       # Number of times the RAS was used to get a target.
system.cpu0.branchPred.RASInCorrect                 0                       # Number of incorrect RAS predictions.
system.cpu0.branchPred.indirectLookups        4218746                       # Number of indirect predictor lookups.
system.cpu0.branchPred.indirectHits           2531075                       # Number of indirect target hits.
system.cpu0.branchPred.indirectMisses         1687671                       # Number of indirect misses.
system.cpu0.branchPredindirectMispredicted            2                       # Number of mispredicted indirect branches.
system.cpu_voltage_domain.voltage                   1                       # Voltage in Volts
system.cpu_clk_domain.clock                       500                       # Clock period in ticks
system.cpu0.dtb.walker.pwrStateResidencyTicks::UNDEFINED  15267344125                       # Cumulative time (in ticks) in various power states
system.cpu0.dtb.rdAccesses                    8928804                       # TLB accesses on read requests
system.cpu0.dtb.wrAccesses                    2104113                       # TLB accesses on write requests
system.cpu0.dtb.rdMisses                          229                       # TLB misses on read requests
system.cpu0.dtb.wrMisses                            0                       # TLB misses on write requests
system.cpu0.apic_clk_domain.clock                8000                       # Clock period in ticks
system.cpu0.interrupts.pwrStateResidencyTicks::UNDEFINED  15267344125                       # Cumulative time (in ticks) in various power states
system.cpu0.itb.walker.pwrStateResidencyTicks::UNDEFINED  15267344125                       # Cumulative time (in ticks) in various power states
system.cpu0.itb.rdAccesses                          0                       # TLB accesses on read requests
system.cpu0.itb.wrAccesses                    6273946                       # TLB accesses on write requests
system.cpu0.itb.rdMisses                            0                       # TLB misses on read requests
system.cpu0.itb.wrMisses                            0                       # TLB misses on write requests
system.cpu0.workload.numSyscalls                    0                       # Number of system calls
system.cpu0.pwrStateResidencyTicks::ON    15267344125                       # Cumulative time (in ticks) in various power states
system.cpu0.numCycles                        30534688                       # number of cpu cycles simulated
system.cpu0.numWorkItemsStarted                     0                       # number of work items this cpu started
system.cpu0.numWorkItemsCompleted                   0                       # number of work items this cpu completed
system.cpu0.fetch.icacheStallCycles           6328052                       # Number of cycles fetch is stalled on an Icache miss
system.cpu0.fetch.Insts                      46392706                       # Number of instructions fetch has processed
system.cpu0.fetch.Branches                    5260702                       # Number of branches that fetch encountered
system.cpu0.fetch.predictedBranches           3262762                       # Number of branches that fetch has predicted taken
system.cpu0.fetch.Cycles                     24099806                       # Number of cycles fetch has run and was not squashing or blocked
system.cpu0.fetch.SquashCycles                 213660                       # Number of cycles fetch has spent squashing
system.cpu0.fetch.CacheLines                  6273946                       # Number of cache lines fetched
system.cpu0.fetch.IcacheSquashes                52701                       # Number of outstanding Icache misses that were squashed
system.cpu0.fetch.rateDist::samples          30534688                       # Number of instructions fetched each cycle (Total)
system.cpu0.fetch.rateDist::mean             2.655474                       # Number of instructions fetched each cycle (Total)
system.cpu0.fetch.rateDist::stdev            3.367170                       # Number of instructions fetched each cycle (Total)
system.cpu0.fetch.rateDist::underflows              0      0.00%      0.00% # Number of instructions fetched each cycle (Total)
system.cpu0.fetch.rateDist::0                16768646     54.92%     54.92% # Number of instructions fetched each cycle (Total)
system.cpu0.fetch.rateDist::1                  726997      2.38%     57.30% # Number of instructions fetched each cycle (Total)
system.cpu0.fetch.rateDist::2                 1661232      5.44%     62.74% # Number of instructions fetched each cycle (Total)
system.cpu0.fetch.rateDist::3                  669937      2.19%     64.93% # Number of instructions fetched each cycle (Total)
system.cpu0.fetch.rateDist::4                  992725      3.25%     68.18% # Number of instructions fetched each cycle (Total)
system.cpu0.fetch.rateDist::5                 1554080      5.09%     73.27% # Number of instructions fetched each cycle (Total)
system.cpu0.fetch.rateDist::6                  572184      1.87%     75.15% # Number of instructions fetched each cycle (Total)
system.cpu0.fetch.rateDist::7                  860700      2.82%     77.97% # Number of instructions fetched each cycle (Total)
system.cpu0.fetch.rateDist::8                 6728187     22.03%    100.00% # Number of instructions fetched each cycle (Total)
system.cpu0.fetch.rateDist::overflows               0      0.00%    100.00% # Number of instructions fetched each cycle (Total)
system.cpu0.fetch.rateDist::min_value               0                       # Number of instructions fetched each cycle (Total)
system.cpu0.fetch.rateDist::max_value               8                       # Number of instructions fetched each cycle (Total)
system.cpu0.fetch.rateDist::total            30534688                       # Number of instructions fetched each cycle (Total)
system.cpu0.fetch.branchRate                 0.172286                       # Number of branch fetches per cycle
system.cpu0.fetch.rate                       1.519344                       # Number of inst fetches per cycle
system.cpu0.decode.IdleCycles                 4108787                       # Number of cycles decode is idle
system.cpu0.decode.BlockedCycles             15789972                       # Number of cycles decode is blocked
system.cpu0.decode.RunCycles                  6158812                       # Number of cycles decode is running
system.cpu0.decode.UnblockCycles              4370287                       # Number of cycles decode is unblocking
system.cpu0.decode.SquashCycles                106830                       # Number of cycles decode is squashing
system.cpu0.decode.DecodedInsts              77598765                       # Number of instructions handled by decode
system.cpu0.rename.SquashCycles                106830                       # Number of cycles rename is squashing
system.cpu0.rename.IdleCycles                 5826564                       # Number of cycles rename is idle
system.cpu0.rename.BlockCycles                5629891                       # Number of cycles rename is blocking
system.cpu0.rename.serializeStallCycles             0                       # count of cycles rename stalled for serializing inst
system.cpu0.rename.RunCycles                  8753017                       # Number of cycles rename is running
system.cpu0.rename.UnblockCycles             10218386                       # Number of cycles rename is unblocking
system.cpu0.rename.RenamedInsts              77098752                       # Number of instructions processed by rename
system.cpu0.rename.ROBFullEvents               210256                       # Number of times rename has blocked due to ROB full
system.cpu0.rename.IQFullEvents               9137566                       # Number of times rename has blocked due to IQ full
system.cpu0.rename.RenamedOperands           82920048                       # Number of destination operands rename has renamed
system.cpu0.rename.RenameLookups            183165203                       # Number of register rename lookups that rename has made
system.cpu0.rename.int_rename_lookups        60332418                       # Number of integer rename lookups
system.cpu0.rename.fp_rename_lookups         75081878                       # Number of floating rename lookups
system.cpu0.rename.CommittedMaps             70674678                       # Number of HB maps that are committed
system.cpu0.rename.UndoneMaps                12245374                       # Number of HB maps that are undone due to squashing
system.cpu0.rename.serializingInsts                 0                       # count of serializing insts renamed
system.cpu0.rename.tempSerializingInsts             0                       # count of temporary serializing insts renamed
system.cpu0.rename.skidInsts                 23461302                       # count of insts added to the skid buffer
system.cpu0.memDep0.insertedLoads             9510967                       # Number of loads inserted to the mem dependence unit.
system.cpu0.memDep0.insertedStores            2106362                       # Number of stores inserted to the mem dependence unit.
system.cpu0.memDep0.conflictingLoads           426699                       # Number of conflicting loads.
system.cpu0.memDep0.conflictingStores           65357                       # Number of conflicting stores.
system.cpu0.iq.iqInstsAdded                  76440247                       # Number of instructions added to the IQ (excludes non-spec)
system.cpu0.iq.iqInstsIssued                 70876673                       # Number of instructions issued
system.cpu0.iq.iqSquashedInstsExamined       10383925                       # Number of squashed instructions iterated over during squash; mainly for profiling
system.cpu0.iq.iqSquashedOperandsExamined     14973536                       # Number of squashed operands that are examined and possibly removed from graph
system.cpu0.iq.issued_per_cycle::samples     30534688                       # Number of insts issued each cycle
system.cpu0.iq.issued_per_cycle::mean        2.321185                       # Number of insts issued each cycle
system.cpu0.iq.issued_per_cycle::stdev       1.958130                       # Number of insts issued each cycle
system.cpu0.iq.issued_per_cycle::underflows            0      0.00%      0.00% # Number of insts issued each cycle
system.cpu0.iq.issued_per_cycle::0            6296495     20.62%     20.62% # Number of insts issued each cycle
system.cpu0.iq.issued_per_cycle::1            6136333     20.10%     40.72% # Number of insts issued each cycle
system.cpu0.iq.issued_per_cycle::2            5668818     18.57%     59.28% # Number of insts issued each cycle
system.cpu0.iq.issued_per_cycle::3            4853856     15.90%     75.18% # Number of insts issued each cycle
system.cpu0.iq.issued_per_cycle::4            2988243      9.79%     84.96% # Number of insts issued each cycle
system.cpu0.iq.issued_per_cycle::5            1970961      6.45%     91.42% # Number of insts issued each cycle
system.cpu0.iq.issued_per_cycle::6            1616288      5.29%     96.71% # Number of insts issued each cycle
system.cpu0.iq.issued_per_cycle::7             693921      2.27%     98.99% # Number of insts issued each cycle
system.cpu0.iq.issued_per_cycle::8             309773      1.01%    100.00% # Number of insts issued each cycle
system.cpu0.iq.issued_per_cycle::overflows            0      0.00%    100.00% # Number of insts issued each cycle
system.cpu0.iq.issued_per_cycle::min_value            0                       # Number of insts issued each cycle
system.cpu0.iq.issued_per_cycle::max_value            8                       # Number of insts issued each cycle
system.cpu0.iq.issued_per_cycle::total       30534688                       # Number of insts issued each cycle
system.cpu0.iq.fu_full::No_OpClass                  0      0.00%      0.00% # attempts to use FU when none available
system.cpu0.iq.fu_full::IntAlu                     16      0.02%      0.02% # attempts to use FU when none available
system.cpu0.iq.fu_full::IntMult                     0      0.00%      0.02% # attempts to use FU when none available
system.cpu0.iq.fu_full::IntDiv                      0      0.00%      0.02% # attempts to use FU when none available
system.cpu0.iq.fu_full::FloatAdd               103433     99.81%     99.82% # attempts to use FU when none available
system.cpu0.iq.fu_full::FloatCmp                    0      0.00%     99.82% # attempts to use FU when none available
system.cpu0.iq.fu_full::FloatCvt                    0      0.00%     99.82% # attempts to use FU when none available
system.cpu0.iq.fu_full::FloatMult                   0      0.00%     99.82% # attempts to use FU when none available
system.cpu0.iq.fu_full::FloatMultAcc                0      0.00%     99.82% # attempts to use FU when none available
system.cpu0.iq.fu_full::FloatDiv                    0      0.00%     99.82% # attempts to use FU when none available
system.cpu0.iq.fu_full::FloatMisc                   0      0.00%     99.82% # attempts to use FU when none available
system.cpu0.iq.fu_full::FloatSqrt                   0      0.00%     99.82% # attempts to use FU when none available
system.cpu0.iq.fu_full::SimdAdd                     0      0.00%     99.82% # attempts to use FU when none available
system.cpu0.iq.fu_full::SimdAddAcc                  0      0.00%     99.82% # attempts to use FU when none available
system.cpu0.iq.fu_full::SimdAlu                     0      0.00%     99.82% # attempts to use FU when none available
system.cpu0.iq.fu_full::SimdCmp                     0      0.00%     99.82% # attempts to use FU when none available
system.cpu0.iq.fu_full::SimdCvt                     0      0.00%     99.82% # attempts to use FU when none available
system.cpu0.iq.fu_full::SimdMisc                    0      0.00%     99.82% # attempts to use FU when none available
system.cpu0.iq.fu_full::SimdMult                    0      0.00%     99.82% # attempts to use FU when none available
system.cpu0.iq.fu_full::SimdMultAcc                 0      0.00%     99.82% # attempts to use FU when none available
system.cpu0.iq.fu_full::SimdShift                   0      0.00%     99.82% # attempts to use FU when none available
system.cpu0.iq.fu_full::SimdShiftAcc                0      0.00%     99.82% # attempts to use FU when none available
system.cpu0.iq.fu_full::SimdSqrt                    0      0.00%     99.82% # attempts to use FU when none available
system.cpu0.iq.fu_full::SimdFloatAdd                0      0.00%     99.82% # attempts to use FU when none available
system.cpu0.iq.fu_full::SimdFloatAlu                0      0.00%     99.82% # attempts to use FU when none available
system.cpu0.iq.fu_full::SimdFloatCmp                0      0.00%     99.82% # attempts to use FU when none available
system.cpu0.iq.fu_full::SimdFloatCvt                0      0.00%     99.82% # attempts to use FU when none available
system.cpu0.iq.fu_full::SimdFloatDiv                0      0.00%     99.82% # attempts to use FU when none available
system.cpu0.iq.fu_full::SimdFloatMisc               0      0.00%     99.82% # attempts to use FU when none available
system.cpu0.iq.fu_full::SimdFloatMult               0      0.00%     99.82% # attempts to use FU when none available
system.cpu0.iq.fu_full::SimdFloatMultAcc            0      0.00%     99.82% # attempts to use FU when none available
system.cpu0.iq.fu_full::SimdFloatSqrt               0      0.00%     99.82% # attempts to use FU when none available
system.cpu0.iq.fu_full::MemRead                   182      0.18%    100.00% # attempts to use FU when none available
system.cpu0.iq.fu_full::MemWrite                    0      0.00%    100.00% # attempts to use FU when none available
system.cpu0.iq.fu_full::FloatMemRead                0      0.00%    100.00% # attempts to use FU when none available
system.cpu0.iq.fu_full::FloatMemWrite               0      0.00%    100.00% # attempts to use FU when none available
system.cpu0.iq.fu_full::IprAccess                   0      0.00%    100.00% # attempts to use FU when none available
system.cpu0.iq.fu_full::InstPrefetch                0      0.00%    100.00% # attempts to use FU when none available
system.cpu0.iq.FU_type_0::No_OpClass             6220      0.01%      0.01% # Type of FU issued
system.cpu0.iq.FU_type_0::IntAlu             36870580     52.02%     52.03% # Type of FU issued
system.cpu0.iq.FU_type_0::IntMult                   0      0.00%     52.03% # Type of FU issued
system.cpu0.iq.FU_type_0::IntDiv                    0      0.00%     52.03% # Type of FU issued
system.cpu0.iq.FU_type_0::FloatAdd           22991630     32.44%     84.47% # Type of FU issued
system.cpu0.iq.FU_type_0::FloatCmp                  0      0.00%     84.47% # Type of FU issued
system.cpu0.iq.FU_type_0::FloatCvt                  0      0.00%     84.47% # Type of FU issued
system.cpu0.iq.FU_type_0::FloatMult                 0      0.00%     84.47% # Type of FU issued
system.cpu0.iq.FU_type_0::FloatMultAcc              0      0.00%     84.47% # Type of FU issued
system.cpu0.iq.FU_type_0::FloatDiv                  0      0.00%     84.47% # Type of FU issued
system.cpu0.iq.FU_type_0::FloatMisc                 0      0.00%     84.47% # Type of FU issued
system.cpu0.iq.FU_type_0::FloatSqrt                 0      0.00%     84.47% # Type of FU issued
system.cpu0.iq.FU_type_0::SimdAdd                   0      0.00%     84.47% # Type of FU issued
system.cpu0.iq.FU_type_0::SimdAddAcc                0      0.00%     84.47% # Type of FU issued
system.cpu0.iq.FU_type_0::SimdAlu                   0      0.00%     84.47% # Type of FU issued
system.cpu0.iq.FU_type_0::SimdCmp                   0      0.00%     84.47% # Type of FU issued
system.cpu0.iq.FU_type_0::SimdCvt                   0      0.00%     84.47% # Type of FU issued
system.cpu0.iq.FU_type_0::SimdMisc                  0      0.00%     84.47% # Type of FU issued
system.cpu0.iq.FU_type_0::SimdMult                  0      0.00%     84.47% # Type of FU issued
system.cpu0.iq.FU_type_0::SimdMultAcc               0      0.00%     84.47% # Type of FU issued
system.cpu0.iq.FU_type_0::SimdShift                 0      0.00%     84.47% # Type of FU issued
system.cpu0.iq.FU_type_0::SimdShiftAcc              0      0.00%     84.47% # Type of FU issued
system.cpu0.iq.FU_type_0::SimdSqrt                  0      0.00%     84.47% # Type of FU issued
system.cpu0.iq.FU_type_0::SimdFloatAdd              0      0.00%     84.47% # Type of FU issued
system.cpu0.iq.FU_type_0::SimdFloatAlu              0      0.00%     84.47% # Type of FU issued
system.cpu0.iq.FU_type_0::SimdFloatCmp              0      0.00%     84.47% # Type of FU issued
system.cpu0.iq.FU_type_0::SimdFloatCvt              0      0.00%     84.47% # Type of FU issued
system.cpu0.iq.FU_type_0::SimdFloatDiv              0      0.00%     84.47% # Type of FU issued
system.cpu0.iq.FU_type_0::SimdFloatMisc             0      0.00%     84.47% # Type of FU issued
system.cpu0.iq.FU_type_0::SimdFloatMult             0      0.00%     84.47% # Type of FU issued
system.cpu0.iq.FU_type_0::SimdFloatMultAcc            0      0.00%     84.47% # Type of FU issued
system.cpu0.iq.FU_type_0::SimdFloatSqrt             0      0.00%     84.47% # Type of FU issued
system.cpu0.iq.FU_type_0::MemRead             1963431      2.77%     87.24% # Type of FU issued
system.cpu0.iq.FU_type_0::MemWrite            1475940      2.08%     89.32% # Type of FU issued
system.cpu0.iq.FU_type_0::FloatMemRead        6940125      9.79%     99.11% # Type of FU issued
system.cpu0.iq.FU_type_0::FloatMemWrite        628747      0.89%    100.00% # Type of FU issued
system.cpu0.iq.FU_type_0::IprAccess                 0      0.00%    100.00% # Type of FU issued
system.cpu0.iq.FU_type_0::InstPrefetch              0      0.00%    100.00% # Type of FU issued
system.cpu0.iq.FU_type_0::total              70876673                       # Type of FU issued
system.cpu0.iq.rate                          2.321185                       # Inst issue rate
system.cpu0.iq.fu_busy_cnt                     103631                       # FU busy when requested
system.cpu0.iq.fu_busy_rate                  0.001462                       # FU busy rate (busy events/executed inst)
system.cpu0.iq.int_inst_queue_reads          97616750                       # Number of integer instruction queue reads
system.cpu0.iq.int_inst_queue_writes         37505319                       # Number of integer instruction queue writes
system.cpu0.iq.int_inst_queue_wakeup_accesses     33479685                       # Number of integer instruction queue wakeup accesses
system.cpu0.iq.fp_inst_queue_reads           74774916                       # Number of floating instruction queue reads
system.cpu0.iq.fp_inst_queue_writes          49318951                       # Number of floating instruction queue writes
system.cpu0.iq.fp_inst_queue_wakeup_accesses     37193224                       # Number of floating instruction queue wakeup accesses
system.cpu0.iq.vec_inst_queue_reads                 0                       # Number of vector instruction queue reads
system.cpu0.iq.vec_inst_queue_writes                0                       # Number of vector instruction queue writes
system.cpu0.iq.vec_inst_queue_wakeup_accesses            0                       # Number of vector instruction queue wakeup accesses
system.cpu0.iq.int_alu_accesses              33534903                       # Number of integer alu accesses
system.cpu0.iq.fp_alu_accesses               37439181                       # Number of floating point alu accesses
system.cpu0.iq.vec_alu_accesses                     0                       # Number of vector alu accesses
system.cpu0.iew.lsq.thread0.forwLoads          420387                       # Number of loads that had data forwarded from stores
system.cpu0.iew.lsq.thread0.invAddrLoads            0                       # Number of loads ignored due to an invalid address
system.cpu0.iew.lsq.thread0.squashedLoads      1377972                       # Number of loads squashed
system.cpu0.iew.lsq.thread0.ignoredResponses            2                       # Number of memory responses ignored because the instruction is squashed
system.cpu0.iew.lsq.thread0.memOrderViolation           98                       # Number of memory ordering violations
system.cpu0.iew.lsq.thread0.squashedStores         3482                       # Number of stores squashed
system.cpu0.iew.lsq.thread0.invAddrSwpfs            0                       # Number of software prefetches ignored due to an invalid address
system.cpu0.iew.lsq.thread0.blockedLoads            0                       # Number of blocked loads due to partial load-store forwarding
system.cpu0.iew.lsq.thread0.rescheduledLoads            0                       # Number of loads that were rescheduled
system.cpu0.iew.lsq.thread0.cacheBlocked            0                       # Number of times an access to memory failed due to the cache being blocked
system.cpu0.iew.iewIdleCycles                       0                       # Number of cycles IEW is idle
system.cpu0.iew.iewSquashCycles                106830                       # Number of cycles IEW is squashing
system.cpu0.iew.iewBlockCycles                3269009                       # Number of cycles IEW is blocking
system.cpu0.iew.iewUnblockCycles               114709                       # Number of cycles IEW is unblocking
system.cpu0.iew.iewDispatchedInsts           76440247                       # Number of instructions dispatched to IQ
system.cpu0.iew.iewDispSquashedInsts                0                       # Number of squashed instructions skipped by dispatch
system.cpu0.iew.iewDispLoadInsts              9510967                       # Number of dispatched load instructions
system.cpu0.iew.iewDispStoreInsts             2106362                       # Number of dispatched store instructions
system.cpu0.iew.iewDispNonSpecInsts                 0                       # Number of dispatched non-speculative instructions
system.cpu0.iew.iewIQFullEvents                101256                       # Number of times the IQ has become full, causing a stall
system.cpu0.iew.iewLSQFullEvents                    0                       # Number of times the LSQ has become full, causing a stall
system.cpu0.iew.memOrderViolationEvents            98                       # Number of memory order violations
system.cpu0.iew.predictedTakenIncorrect         58150                       # Number of branches that were predicted taken incorrectly
system.cpu0.iew.predictedNotTakenIncorrect        48587                       # Number of branches that were predicted not taken incorrectly
system.cpu0.iew.branchMispredicts              106737                       # Number of branch mispredicts detected at execute
system.cpu0.iew.iewExecutedInsts             70681513                       # Number of executed instructions
system.cpu0.iew.iewExecLoadInsts              8902479                       # Number of load instructions executed
system.cpu0.iew.iewExecSquashedInsts           195161                       # Number of squashed instructions skipped in execute
system.cpu0.iew.exec_swp                            0                       # number of swp insts executed
system.cpu0.iew.exec_nop                            0                       # number of nop insts executed
system.cpu0.iew.exec_refs                    11006592                       # number of memory reference insts executed
system.cpu0.iew.exec_branches                 4726233                       # Number of branches executed
system.cpu0.iew.exec_stores                   2104113                       # Number of stores executed
system.cpu0.iew.exec_rate                    2.314794                       # Inst execution rate
system.cpu0.iew.wb_sent                      70677250                       # cumulative count of insts sent to commit
system.cpu0.iew.wb_count                     70672909                       # cumulative count of insts written-back
system.cpu0.iew.wb_producers                 52622013                       # num instructions producing a value
system.cpu0.iew.wb_consumers                 92640401                       # num instructions consuming a value
system.cpu0.iew.wb_rate                      2.314512                       # insts written-back per cycle
system.cpu0.iew.wb_fanout                    0.568024                       # average fanout of values written-back
system.cpu0.commit.commitSquashedInsts       10383925                       # The number of squashed insts skipped by commit
system.cpu0.commit.branchMispredicts           106732                       # The number of times a branch was mispredicted
system.cpu0.commit.committed_per_cycle::samples     29206379                       # Number of insts commited each cycle
system.cpu0.commit.committed_per_cycle::mean     2.261708                       # Number of insts commited each cycle
system.cpu0.commit.committed_per_cycle::stdev     2.863731                       # Number of insts commited each cycle
system.cpu0.commit.committed_per_cycle::underflows            0      0.00%      0.00% # Number of insts commited each cycle
system.cpu0.commit.committed_per_cycle::0     10911557     37.36%     37.36% # Number of insts commited each cycle
system.cpu0.commit.committed_per_cycle::1      7538016     25.81%     63.17% # Number of insts commited each cycle
system.cpu0.commit.committed_per_cycle::2      1058634      3.62%     66.79% # Number of insts commited each cycle
system.cpu0.commit.committed_per_cycle::3      2917884      9.99%     76.78% # Number of insts commited each cycle
system.cpu0.commit.committed_per_cycle::4      1143550      3.92%     80.70% # Number of insts commited each cycle
system.cpu0.commit.committed_per_cycle::5       217633      0.75%     81.45% # Number of insts commited each cycle
system.cpu0.commit.committed_per_cycle::6       422007      1.44%     82.89% # Number of insts commited each cycle
system.cpu0.commit.committed_per_cycle::7       523824      1.79%     84.68% # Number of insts commited each cycle
system.cpu0.commit.committed_per_cycle::8      4473274     15.32%    100.00% # Number of insts commited each cycle
system.cpu0.commit.committed_per_cycle::overflows            0      0.00%    100.00% # Number of insts commited each cycle
system.cpu0.commit.committed_per_cycle::min_value            0                       # Number of insts commited each cycle
system.cpu0.commit.committed_per_cycle::max_value            8                       # Number of insts commited each cycle
system.cpu0.commit.committed_per_cycle::total     29206379                       # Number of insts commited each cycle
system.cpu0.commit.committedInsts            37206545                       # Number of instructions committed
system.cpu0.commit.committedOps              66056303                       # Number of ops (including micro ops) committed
system.cpu0.commit.swp_count                        0                       # Number of s/w prefetches committed
system.cpu0.commit.refs                      10235870                       # Number of memory references committed
system.cpu0.commit.loads                      8132994                       # Number of loads committed
system.cpu0.commit.membars                          0                       # Number of memory barriers committed
system.cpu0.commit.branches                   4622004                       # Number of branches committed
system.cpu0.commit.vec_insts                        0                       # Number of committed Vector instructions.
system.cpu0.commit.fp_insts                  34156017                       # Number of committed floating point instructions.
system.cpu0.commit.int_insts                 41007681                       # Number of committed integer instructions.
system.cpu0.commit.function_calls              628732                       # Number of function calls committed.
system.cpu0.commit.op_class_0::No_OpClass         6003      0.01%      0.01% # Class of committed instruction
system.cpu0.commit.op_class_0::IntAlu        34335247     51.98%     51.99% # Class of committed instruction
system.cpu0.commit.op_class_0::IntMult              0      0.00%     51.99% # Class of committed instruction
system.cpu0.commit.op_class_0::IntDiv               0      0.00%     51.99% # Class of committed instruction
system.cpu0.commit.op_class_0::FloatAdd      21479183     32.52%     84.50% # Class of committed instruction
system.cpu0.commit.op_class_0::FloatCmp             0      0.00%     84.50% # Class of committed instruction
system.cpu0.commit.op_class_0::FloatCvt             0      0.00%     84.50% # Class of committed instruction
system.cpu0.commit.op_class_0::FloatMult            0      0.00%     84.50% # Class of committed instruction
system.cpu0.commit.op_class_0::FloatMultAcc            0      0.00%     84.50% # Class of committed instruction
system.cpu0.commit.op_class_0::FloatDiv             0      0.00%     84.50% # Class of committed instruction
system.cpu0.commit.op_class_0::FloatMisc            0      0.00%     84.50% # Class of committed instruction
system.cpu0.commit.op_class_0::FloatSqrt            0      0.00%     84.50% # Class of committed instruction
system.cpu0.commit.op_class_0::SimdAdd              0      0.00%     84.50% # Class of committed instruction
system.cpu0.commit.op_class_0::SimdAddAcc            0      0.00%     84.50% # Class of committed instruction
system.cpu0.commit.op_class_0::SimdAlu              0      0.00%     84.50% # Class of committed instruction
system.cpu0.commit.op_class_0::SimdCmp              0      0.00%     84.50% # Class of committed instruction
system.cpu0.commit.op_class_0::SimdCvt              0      0.00%     84.50% # Class of committed instruction
system.cpu0.commit.op_class_0::SimdMisc             0      0.00%     84.50% # Class of committed instruction
system.cpu0.commit.op_class_0::SimdMult             0      0.00%     84.50% # Class of committed instruction
system.cpu0.commit.op_class_0::SimdMultAcc            0      0.00%     84.50% # Class of committed instruction
system.cpu0.commit.op_class_0::SimdShift            0      0.00%     84.50% # Class of committed instruction
system.cpu0.commit.op_class_0::SimdShiftAcc            0      0.00%     84.50% # Class of committed instruction
system.cpu0.commit.op_class_0::SimdSqrt             0      0.00%     84.50% # Class of committed instruction
system.cpu0.commit.op_class_0::SimdFloatAdd            0      0.00%     84.50% # Class of committed instruction
system.cpu0.commit.op_class_0::SimdFloatAlu            0      0.00%     84.50% # Class of committed instruction
system.cpu0.commit.op_class_0::SimdFloatCmp            0      0.00%     84.50% # Class of committed instruction
system.cpu0.commit.op_class_0::SimdFloatCvt            0      0.00%     84.50% # Class of committed instruction
system.cpu0.commit.op_class_0::SimdFloatDiv            0      0.00%     84.50% # Class of committed instruction
system.cpu0.commit.op_class_0::SimdFloatMisc            0      0.00%     84.50% # Class of committed instruction
system.cpu0.commit.op_class_0::SimdFloatMult            0      0.00%     84.50% # Class of committed instruction
system.cpu0.commit.op_class_0::SimdFloatMultAcc            0      0.00%     84.50% # Class of committed instruction
system.cpu0.commit.op_class_0::SimdFloatSqrt            0      0.00%     84.50% # Class of committed instruction
system.cpu0.commit.op_class_0::MemRead        1953689      2.96%     87.46% # Class of committed instruction
system.cpu0.commit.op_class_0::MemWrite       1474139      2.23%     89.69% # Class of committed instruction
system.cpu0.commit.op_class_0::FloatMemRead      6179305      9.35%     99.05% # Class of committed instruction
system.cpu0.commit.op_class_0::FloatMemWrite       628737      0.95%    100.00% # Class of committed instruction
system.cpu0.commit.op_class_0::IprAccess            0      0.00%    100.00% # Class of committed instruction
system.cpu0.commit.op_class_0::InstPrefetch            0      0.00%    100.00% # Class of committed instruction
system.cpu0.commit.op_class_0::total         66056303                       # Class of committed instruction
system.cpu0.commit.bw_lim_events              4473274                       # number cycles where commit BW limit reached
system.cpu0.rob.rob_reads                   101173333                       # The number of ROB reads
system.cpu0.rob.rob_writes                  154208803                       # The number of ROB writes
system.cpu0.committedInsts                   37206545                       # Number of Instructions Simulated
system.cpu0.committedOps                     66056303                       # Number of Ops (including micro ops) Simulated
system.cpu0.cpi                              0.820681                       # CPI: Cycles Per Instruction
system.cpu0.cpi_total                        0.820681                       # CPI: Total CPI of All Threads
system.cpu0.ipc                              1.218501                       # IPC: Instructions Per Cycle
system.cpu0.ipc_total                        1.218501                       # IPC: Total IPC of All Threads
system.cpu0.int_regfile_reads                56278966                       # number of integer regfile reads
system.cpu0.int_regfile_writes               28629012                       # number of integer regfile writes
system.cpu0.fp_regfile_reads                 64837229                       # number of floating regfile reads
system.cpu0.fp_regfile_writes                33324253                       # number of floating regfile writes
system.cpu0.cc_regfile_reads                 20662091                       # number of cc regfile reads
system.cpu0.cc_regfile_writes                13440720                       # number of cc regfile writes
system.cpu0.misc_regfile_reads               24170311                       # number of misc regfile reads
system.cpu0.dcache.tags.pwrStateResidencyTicks::UNDEFINED  15267344125                       # Cumulative time (in ticks) in various power states
system.cpu0.dcache.tags.replacements            14438                       # number of replacements
system.cpu0.dcache.tags.tagsinuse                 512                       # Cycle average of tags in use
system.cpu0.dcache.tags.total_refs            1716509                       # Total number of references to valid blocks.
system.cpu0.dcache.tags.sampled_refs            14438                       # Sample count of references to valid blocks.
system.cpu0.dcache.tags.avg_refs           118.888281                       # Average number of references to valid blocks.
system.cpu0.dcache.tags.warmup_cycle                0                       # Cycle when the warmup percentage was hit.
system.cpu0.dcache.tags.occ_blocks::cpu0.data          512                       # Average occupied blocks per requestor
system.cpu0.dcache.tags.occ_percent::cpu0.data            1                       # Average percentage of cache occupancy
system.cpu0.dcache.tags.occ_percent::total            1                       # Average percentage of cache occupancy
system.cpu0.dcache.tags.occ_task_id_blocks::1024          512                       # Occupied blocks per task id
system.cpu0.dcache.tags.age_task_id_blocks_1024::0            9                       # Occupied blocks per task id
system.cpu0.dcache.tags.age_task_id_blocks_1024::1           86                       # Occupied blocks per task id
system.cpu0.dcache.tags.age_task_id_blocks_1024::2          199                       # Occupied blocks per task id
system.cpu0.dcache.tags.age_task_id_blocks_1024::3           13                       # Occupied blocks per task id
system.cpu0.dcache.tags.age_task_id_blocks_1024::4          205                       # Occupied blocks per task id
system.cpu0.dcache.tags.occ_task_id_percent::1024            1                       # Percentage of cache occupancy per task id
system.cpu0.dcache.tags.tag_accesses         42459614                       # Number of tag accesses
system.cpu0.dcache.tags.data_accesses        42459614                       # Number of data accesses
system.cpu0.dcache.pwrStateResidencyTicks::UNDEFINED  15267344125                       # Cumulative time (in ticks) in various power states
system.cpu0.dcache.ReadReq_hits::cpu0.data      8493846                       # number of ReadReq hits
system.cpu0.dcache.ReadReq_hits::total        8493846                       # number of ReadReq hits
system.cpu0.dcache.WriteReq_hits::cpu0.data      2102877                       # number of WriteReq hits
system.cpu0.dcache.WriteReq_hits::total       2102877                       # number of WriteReq hits
system.cpu0.dcache.demand_hits::cpu0.data     10596723                       # number of demand (read+write) hits
system.cpu0.dcache.demand_hits::total        10596723                       # number of demand (read+write) hits
system.cpu0.dcache.overall_hits::cpu0.data     10596723                       # number of overall hits
system.cpu0.dcache.overall_hits::total       10596723                       # number of overall hits
system.cpu0.dcache.ReadReq_misses::cpu0.data        14571                       # number of ReadReq misses
system.cpu0.dcache.ReadReq_misses::total        14571                       # number of ReadReq misses
system.cpu0.dcache.demand_misses::cpu0.data        14571                       # number of demand (read+write) misses
system.cpu0.dcache.demand_misses::total         14571                       # number of demand (read+write) misses
system.cpu0.dcache.overall_misses::cpu0.data        14571                       # number of overall misses
system.cpu0.dcache.overall_misses::total        14571                       # number of overall misses
system.cpu0.dcache.ReadReq_miss_latency::cpu0.data   1371257500                       # number of ReadReq miss cycles
system.cpu0.dcache.ReadReq_miss_latency::total   1371257500                       # number of ReadReq miss cycles
system.cpu0.dcache.demand_miss_latency::cpu0.data   1371257500                       # number of demand (read+write) miss cycles
system.cpu0.dcache.demand_miss_latency::total   1371257500                       # number of demand (read+write) miss cycles
system.cpu0.dcache.overall_miss_latency::cpu0.data   1371257500                       # number of overall miss cycles
system.cpu0.dcache.overall_miss_latency::total   1371257500                       # number of overall miss cycles
system.cpu0.dcache.ReadReq_accesses::cpu0.data      8508417                       # number of ReadReq accesses(hits+misses)
system.cpu0.dcache.ReadReq_accesses::total      8508417                       # number of ReadReq accesses(hits+misses)
system.cpu0.dcache.WriteReq_accesses::cpu0.data      2102877                       # number of WriteReq accesses(hits+misses)
system.cpu0.dcache.WriteReq_accesses::total      2102877                       # number of WriteReq accesses(hits+misses)
system.cpu0.dcache.demand_accesses::cpu0.data     10611294                       # number of demand (read+write) accesses
system.cpu0.dcache.demand_accesses::total     10611294                       # number of demand (read+write) accesses
system.cpu0.dcache.overall_accesses::cpu0.data     10611294                       # number of overall (read+write) accesses
system.cpu0.dcache.overall_accesses::total     10611294                       # number of overall (read+write) accesses
system.cpu0.dcache.ReadReq_miss_rate::cpu0.data     0.001713                       # miss rate for ReadReq accesses
system.cpu0.dcache.ReadReq_miss_rate::total     0.001713                       # miss rate for ReadReq accesses
system.cpu0.dcache.demand_miss_rate::cpu0.data     0.001373                       # miss rate for demand accesses
system.cpu0.dcache.demand_miss_rate::total     0.001373                       # miss rate for demand accesses
system.cpu0.dcache.overall_miss_rate::cpu0.data     0.001373                       # miss rate for overall accesses
system.cpu0.dcache.overall_miss_rate::total     0.001373                       # miss rate for overall accesses
system.cpu0.dcache.ReadReq_avg_miss_latency::cpu0.data 94108.674765                       # average ReadReq miss latency
system.cpu0.dcache.ReadReq_avg_miss_latency::total 94108.674765                       # average ReadReq miss latency
system.cpu0.dcache.demand_avg_miss_latency::cpu0.data 94108.674765                       # average overall miss latency
system.cpu0.dcache.demand_avg_miss_latency::total 94108.674765                       # average overall miss latency
system.cpu0.dcache.overall_avg_miss_latency::cpu0.data 94108.674765                       # average overall miss latency
system.cpu0.dcache.overall_avg_miss_latency::total 94108.674765                       # average overall miss latency
system.cpu0.dcache.blocked_cycles::no_mshrs            0                       # number of cycles access was blocked
system.cpu0.dcache.blocked_cycles::no_targets            0                       # number of cycles access was blocked
system.cpu0.dcache.blocked::no_mshrs                0                       # number of cycles access was blocked
system.cpu0.dcache.blocked::no_targets              0                       # number of cycles access was blocked
system.cpu0.dcache.avg_blocked_cycles::no_mshrs          nan                       # average number of cycles each access was blocked
system.cpu0.dcache.avg_blocked_cycles::no_targets          nan                       # average number of cycles each access was blocked
system.cpu0.dcache.writebacks::writebacks        13457                       # number of writebacks
system.cpu0.dcache.writebacks::total            13457                       # number of writebacks
system.cpu0.dcache.ReadReq_mshr_hits::cpu0.data          133                       # number of ReadReq MSHR hits
system.cpu0.dcache.ReadReq_mshr_hits::total          133                       # number of ReadReq MSHR hits
system.cpu0.dcache.demand_mshr_hits::cpu0.data          133                       # number of demand (read+write) MSHR hits
system.cpu0.dcache.demand_mshr_hits::total          133                       # number of demand (read+write) MSHR hits
system.cpu0.dcache.overall_mshr_hits::cpu0.data          133                       # number of overall MSHR hits
system.cpu0.dcache.overall_mshr_hits::total          133                       # number of overall MSHR hits
system.cpu0.dcache.ReadReq_mshr_misses::cpu0.data        14438                       # number of ReadReq MSHR misses
system.cpu0.dcache.ReadReq_mshr_misses::total        14438                       # number of ReadReq MSHR misses
system.cpu0.dcache.demand_mshr_misses::cpu0.data        14438                       # number of demand (read+write) MSHR misses
system.cpu0.dcache.demand_mshr_misses::total        14438                       # number of demand (read+write) MSHR misses
system.cpu0.dcache.overall_mshr_misses::cpu0.data        14438                       # number of overall MSHR misses
[...]
system.l2.tags.age_task_id_blocks_1024::0            9                       # Occupied blocks per task id
system.l2.tags.age_task_id_blocks_1024::1           84                       # Occupied blocks per task id
system.l2.tags.age_task_id_blocks_1024::2          845                       # Occupied blocks per task id
system.l2.tags.age_task_id_blocks_1024::3         8439                       # Occupied blocks per task id
system.l2.tags.age_task_id_blocks_1024::4       121695                       # Occupied blocks per task id
system.l2.tags.occ_task_id_percent::1024            1                       # Percentage of cache occupancy per task id
system.l2.tags.tag_accesses                    245290                       # Number of tag accesses
system.l2.tags.data_accesses                   245290                       # Number of data accesses
system.l2.pwrStateResidencyTicks::UNDEFINED  15267344125                       # Cumulative time (in ticks) in various power states
system.l2.WritebackDirty_hits::writebacks        13457                       # number of WritebackDirty hits
system.l2.WritebackDirty_hits::total            13457                       # number of WritebackDirty hits
system.l2.ReadSharedReq_hits::cpu0.data           156                       # number of ReadSharedReq hits
system.l2.ReadSharedReq_hits::total               156                       # number of ReadSharedReq hits
system.l2.demand_hits::cpu0.data                  156                       # number of demand (read+write) hits
system.l2.demand_hits::total                      156                       # number of demand (read+write) hits
system.l2.overall_hits::cpu0.data                 156                       # number of overall hits
system.l2.overall_hits::total                     156                       # number of overall hits
system.l2.ReadSharedReq_misses::cpu0.data        14282                       # number of ReadSharedReq misses
system.l2.ReadSharedReq_misses::total           14282                       # number of ReadSharedReq misses
system.l2.demand_misses::cpu0.data              14282                       # number of demand (read+write) misses
system.l2.demand_misses::total                  14282                       # number of demand (read+write) misses
system.l2.overall_misses::cpu0.data             14282                       # number of overall misses
system.l2.overall_misses::total                 14282                       # number of overall misses
system.l2.ReadSharedReq_miss_latency::cpu0.data   1328210500                       # number of ReadSharedReq miss cycles
system.l2.ReadSharedReq_miss_latency::total   1328210500                       # number of ReadSharedReq miss cycles
system.l2.demand_miss_latency::cpu0.data   1328210500                       # number of demand (read+write) miss cycles
system.l2.demand_miss_latency::total       1328210500                       # number of demand (read+write) miss cycles
system.l2.overall_miss_latency::cpu0.data   1328210500                       # number of overall miss cycles
system.l2.overall_miss_latency::total      1328210500                       # number of overall miss cycles
system.l2.WritebackDirty_accesses::writebacks        13457                       # number of WritebackDirty accesses(hits+misses)
system.l2.WritebackDirty_accesses::total        13457                       # number of WritebackDirty accesses(hits+misses)
system.l2.ReadSharedReq_accesses::cpu0.data        14438                       # number of ReadSharedReq accesses(hits+misses)
system.l2.ReadSharedReq_accesses::total         14438                       # number of ReadSharedReq accesses(hits+misses)
system.l2.demand_accesses::cpu0.data            14438                       # number of demand (read+write) accesses
system.l2.demand_accesses::total                14438                       # number of demand (read+write) accesses
system.l2.overall_accesses::cpu0.data           14438                       # number of overall (read+write) accesses
system.l2.overall_accesses::total               14438                       # number of overall (read+write) accesses
system.l2.ReadSharedReq_miss_rate::cpu0.data     0.989195                       # miss rate for ReadSharedReq accesses
system.l2.ReadSharedReq_miss_rate::total     0.989195                       # miss rate for ReadSharedReq accesses
system.l2.demand_miss_rate::cpu0.data        0.989195                       # miss rate for demand accesses
system.l2.demand_miss_rate::total            0.989195                       # miss rate for demand accesses
system.l2.overall_miss_rate::cpu0.data       0.989195                       # miss rate for overall accesses
system.l2.overall_miss_rate::total           0.989195                       # miss rate for overall accesses
system.l2.ReadSharedReq_avg_miss_latency::cpu0.data 92998.914718                       # average ReadSharedReq miss latency
system.l2.ReadSharedReq_avg_miss_latency::total 92998.914718                       # average ReadSharedReq miss latency
system.l2.demand_avg_miss_latency::cpu0.data 92998.914718                       # average overall miss latency
system.l2.demand_avg_miss_latency::total 92998.914718                       # average overall miss latency
system.l2.overall_avg_miss_latency::cpu0.data 92998.914718                       # average overall miss latency
system.l2.overall_avg_miss_latency::total 92998.914718                       # average overall miss latency
system.l2.blocked_cycles::no_mshrs                  0                       # number of cycles access was blocked
system.l2.blocked_cycles::no_targets                0                       # number of cycles access was blocked
system.l2.blocked::no_mshrs                         0                       # number of cycles access was blocked
system.l2.blocked::no_targets                       0                       # number of cycles access was blocked
system.l2.avg_blocked_cycles::no_mshrs            nan                       # average number of cycles each access was blocked
system.l2.avg_blocked_cycles::no_targets          nan                       # average number of cycles each access was blocked
system.l2.writebacks::writebacks                13261                       # number of writebacks
system.l2.writebacks::total                     13261                       # number of writebacks
system.l2.CleanEvict_mshr_misses::writebacks            2                       # number of CleanEvict MSHR misses
system.l2.CleanEvict_mshr_misses::total             2                       # number of CleanEvict MSHR misses
system.l2.ReadSharedReq_mshr_misses::cpu0.data        14282                       # number of ReadSharedReq MSHR misses
system.l2.ReadSharedReq_mshr_misses::total        14282                       # number of ReadSharedReq MSHR misses
system.l2.demand_mshr_misses::cpu0.data         14282                       # number of demand (read+write) MSHR misses
system.l2.demand_mshr_misses::total             14282                       # number of demand (read+write) MSHR misses
system.l2.overall_mshr_misses::cpu0.data        14282                       # number of overall MSHR misses
system.l2.overall_mshr_misses::total            14282                       # number of overall MSHR misses
system.l2.ReadSharedReq_mshr_miss_latency::cpu0.data   1185390500                       # number of ReadSharedReq MSHR miss cycles
system.l2.ReadSharedReq_mshr_miss_latency::total   1185390500                       # number of ReadSharedReq MSHR miss cycles
system.l2.demand_mshr_miss_latency::cpu0.data   1185390500                       # number of demand (read+write) MSHR miss cycles
system.l2.demand_mshr_miss_latency::total   1185390500                       # number of demand (read+write) MSHR miss cycles
system.l2.overall_mshr_miss_latency::cpu0.data   1185390500                       # number of overall MSHR miss cycles
system.l2.overall_mshr_miss_latency::total   1185390500                       # number of overall MSHR miss cycles
system.l2.CleanEvict_mshr_miss_rate::writebacks          inf                       # mshr miss rate for CleanEvict accesses
system.l2.CleanEvict_mshr_miss_rate::total          inf                       # mshr miss rate for CleanEvict accesses
system.l2.ReadSharedReq_mshr_miss_rate::cpu0.data     0.989195                       # mshr miss rate for ReadSharedReq accesses
system.l2.ReadSharedReq_mshr_miss_rate::total     0.989195                       # mshr miss rate for ReadSharedReq accesses
system.l2.demand_mshr_miss_rate::cpu0.data     0.989195                       # mshr miss rate for demand accesses
system.l2.demand_mshr_miss_rate::total       0.989195                       # mshr miss rate for demand accesses
system.l2.overall_mshr_miss_rate::cpu0.data     0.989195                       # mshr miss rate for overall accesses
system.l2.overall_mshr_miss_rate::total      0.989195                       # mshr miss rate for overall accesses
system.l2.ReadSharedReq_avg_mshr_miss_latency::cpu0.data 82998.914718                       # average ReadSharedReq mshr miss latency
system.l2.ReadSharedReq_avg_mshr_miss_latency::total 82998.914718                       # average ReadSharedReq mshr miss latency
system.l2.demand_avg_mshr_miss_latency::cpu0.data 82998.914718                       # average overall mshr miss latency
system.l2.demand_avg_mshr_miss_latency::total 82998.914718                       # average overall mshr miss latency
system.l2.overall_avg_mshr_miss_latency::cpu0.data 82998.914718                       # average overall mshr miss latency
system.l2.overall_avg_mshr_miss_latency::total 82998.914718                       # average overall mshr miss latency
system.membus.snoop_filter.tot_requests         28565                       # Total number of requests made to the snoop filter.
system.membus.snoop_filter.hit_single_requests        14283                       # Number of requests hitting in the snoop filter with a single holder of the requested data.
system.membus.snoop_filter.hit_multi_requests            0                       # Number of requests hitting in the snoop filter with multiple (>1) holders of the requested data.
system.membus.snoop_filter.tot_snoops               0                       # Total number of snoops made to the snoop filter.
system.membus.snoop_filter.hit_single_snoops            0                       # Number of snoops hitting in the snoop filter with a single holder of the requested data.
system.membus.snoop_filter.hit_multi_snoops            0                       # Number of snoops hitting in the snoop filter with multiple (>1) holders of the requested data.
system.membus.pwrStateResidencyTicks::UNDEFINED  15267344125                       # Cumulative time (in ticks) in various power states
system.membus.trans_dist::ReadResp              14282                       # Transaction distribution
system.membus.trans_dist::WritebackDirty        13261                       # Transaction distribution
system.membus.trans_dist::CleanEvict             1022                       # Transaction distribution
system.membus.trans_dist::ReadSharedReq         14282                       # Transaction distribution
system.membus.pkt_count_system.l2.mem_side::system.mem_ctrls.port        42847                       # Packet count per connected master and slave (bytes)
system.membus.pkt_count_system.l2.mem_side::total        42847                       # Packet count per connected master and slave (bytes)
system.membus.pkt_count::total                  42847                       # Packet count per connected master and slave (bytes)
system.membus.pkt_size_system.l2.mem_side::system.mem_ctrls.port      1762752                       # Cumulative packet size per connected master and slave (bytes)
system.membus.pkt_size_system.l2.mem_side::total      1762752                       # Cumulative packet size per connected master and slave (bytes)
system.membus.pkt_size::total                 1762752                       # Cumulative packet size per connected master and slave (bytes)
system.membus.snoops                                0                       # Total snoops (count)
system.membus.snoopTraffic                          0                       # Total snoop traffic (bytes)
system.membus.snoop_fanout::samples             14282                       # Request fanout histogram
system.membus.snoop_fanout::mean                    0                       # Request fanout histogram
system.membus.snoop_fanout::stdev                   0                       # Request fanout histogram
system.membus.snoop_fanout::underflows              0      0.00%      0.00% # Request fanout histogram
system.membus.snoop_fanout::0                   14282    100.00%    100.00% # Request fanout histogram
system.membus.snoop_fanout::1                       0      0.00%    100.00% # Request fanout histogram
system.membus.snoop_fanout::overflows               0      0.00%    100.00% # Request fanout histogram
system.membus.snoop_fanout::min_value               0                       # Request fanout histogram
system.membus.snoop_fanout::max_value               0                       # Request fanout histogram
system.membus.snoop_fanout::total               14282                       # Request fanout histogram
system.membus.reqLayer12.occupancy           85221000                       # Layer occupancy (ticks)
system.membus.reqLayer12.utilization              0.6                       # Layer utilization (%)
system.membus.respLayer1.occupancy           76056500                       # Layer occupancy (ticks)
system.membus.respLayer1.utilization              0.5                       # Layer utilization (%)
system.tol2bus.snoop_filter.tot_requests        28876                       # Total number of requests made to the snoop filter.
system.tol2bus.snoop_filter.hit_single_requests        14438                       # Number of requests hitting in the snoop filter with a single holder of the requested data.
system.tol2bus.snoop_filter.hit_multi_requests            0                       # Number of requests hitting in the snoop filter with multiple (>1) holders of the requested data.
system.tol2bus.snoop_filter.tot_snoops              1                       # Total number of snoops made to the snoop filter.
system.tol2bus.snoop_filter.hit_single_snoops            1                       # Number of snoops hitting in the snoop filter with a single holder of the requested data.
system.tol2bus.snoop_filter.hit_multi_snoops            0                       # Number of snoops hitting in the snoop filter with multiple (>1) holders of the requested data.
system.tol2bus.pwrStateResidencyTicks::UNDEFINED  15267344125                       # Cumulative time (in ticks) in various power states
system.tol2bus.trans_dist::ReadResp             14438                       # Transaction distribution
system.tol2bus.trans_dist::WritebackDirty        26718                       # Transaction distribution
system.tol2bus.trans_dist::CleanEvict            2002                       # Transaction distribution
system.tol2bus.trans_dist::ReadSharedReq        14438                       # Transaction distribution
system.tol2bus.pkt_count_system.cpu0.dcache.mem_side::system.l2.cpu_side        43314                       # Packet count per connected master and slave (bytes)
system.tol2bus.pkt_count::total                 43314                       # Packet count per connected master and slave (bytes)
system.tol2bus.pkt_size_system.cpu0.dcache.mem_side::system.l2.cpu_side      1785280                       # Cumulative packet size per connected master and slave (bytes)
system.tol2bus.pkt_size::total                1785280                       # Cumulative packet size per connected master and slave (bytes)
system.tol2bus.snoops                           14282                       # Total snoops (count)
system.tol2bus.snoopTraffic                    848704                       # Total snoop traffic (bytes)
system.tol2bus.snoop_fanout::samples            28720                       # Request fanout histogram
system.tol2bus.snoop_fanout::mean            0.000035                       # Request fanout histogram
system.tol2bus.snoop_fanout::stdev           0.005901                       # Request fanout histogram
system.tol2bus.snoop_fanout::underflows             0      0.00%      0.00% # Request fanout histogram
system.tol2bus.snoop_fanout::0                  28719    100.00%    100.00% # Request fanout histogram
system.tol2bus.snoop_fanout::1                      1      0.00%    100.00% # Request fanout histogram
system.tol2bus.snoop_fanout::2                      0      0.00%    100.00% # Request fanout histogram
system.tol2bus.snoop_fanout::3                      0      0.00%    100.00% # Request fanout histogram
system.tol2bus.snoop_fanout::4                      0      0.00%    100.00% # Request fanout histogram
system.tol2bus.snoop_fanout::5                      0      0.00%    100.00% # Request fanout histogram
system.tol2bus.snoop_fanout::6                      0      0.00%    100.00% # Request fanout histogram
system.tol2bus.snoop_fanout::7                      0      0.00%    100.00% # Request fanout histogram
system.tol2bus.snoop_fanout::8                      0      0.00%    100.00% # Request fanout histogram
system.tol2bus.snoop_fanout::9                      0      0.00%    100.00% # Request fanout histogram
system.tol2bus.snoop_fanout::10                     0      0.00%    100.00% # Request fanout histogram
system.tol2bus.snoop_fanout::11                     0      0.00%    100.00% # Request fanout histogram
system.tol2bus.snoop_fanout::12                     0      0.00%    100.00% # Request fanout histogram
system.tol2bus.snoop_fanout::13                     0      0.00%    100.00% # Request fanout histogram
system.tol2bus.snoop_fanout::14                     0      0.00%    100.00% # Request fanout histogram
system.tol2bus.snoop_fanout::15                     0      0.00%    100.00% # Request fanout histogram
system.tol2bus.snoop_fanout::16                     0      0.00%    100.00% # Request fanout histogram
system.tol2bus.snoop_fanout::17                     0      0.00%    100.00% # Request fanout histogram
system.tol2bus.snoop_fanout::18                     0      0.00%    100.00% # Request fanout histogram
system.tol2bus.snoop_fanout::19                     0      0.00%    100.00% # Request fanout histogram
system.tol2bus.snoop_fanout::20                     0      0.00%    100.00% # Request fanout histogram
system.tol2bus.snoop_fanout::21                     0      0.00%    100.00% # Request fanout histogram
system.tol2bus.snoop_fanout::22                     0      0.00%    100.00% # Request fanout histogram
system.tol2bus.snoop_fanout::23                     0      0.00%    100.00% # Request fanout histogram
system.tol2bus.snoop_fanout::24                     0      0.00%    100.00% # Request fanout histogram
system.tol2bus.snoop_fanout::overflows              0      0.00%    100.00% # Request fanout histogram
system.tol2bus.snoop_fanout::min_value              0                       # Request fanout histogram
system.tol2bus.snoop_fanout::max_value              1                       # Request fanout histogram
system.tol2bus.snoop_fanout::total              28720                       # Request fanout histogram
system.tol2bus.reqLayer0.occupancy           27895000                       # Layer occupancy (ticks)
system.tol2bus.reqLayer0.utilization              0.2                       # Layer utilization (%)
system.tol2bus.respLayer1.occupancy          21657000                       # Layer occupancy (ticks)
system.tol2bus.respLayer1.utilization             0.1                       # Layer utilization (%)

---------- End Simulation Statistics   ----------
