
---------- Begin Simulation Statistics ----------
sim_seconds                                  0.015267                       # Number of seconds simulated
sim_ticks                                 15267344125                       # Number of ticks simulated
final_tick                               2412240371750                       # Number of ticks from beginning of simulation (restored from checkpoints and never reset)
sim_freq                                 1000000000000                       # Frequency of simulated ticks
host_inst_rate                               12222072                       # Simulator instruction rate (inst/s)
host_op_rate                                 22500748                       # Simulator op (including micro ops) rate (op/s)
host_tick_rate                               35582511                       # Simulator tick rate (ticks/s)
host_mem_usage                                3428828                       # Number of bytes of host memory used
host_seconds                                   429.07                       # Real time elapsed on the host
sim_insts                                  5244108872                       # Number of instructions simulated
sim_ops                                    9654367640                       # Number of ops (including micro ops) simulated
system.voltage_domain.voltage                       1                       # Voltage in Volts
system.clk_domain.clock                          1000                       # Clock period in ticks
system.mem_ctrls.pwrStateResidencyTicks::UNDEFINED  15267344125                       # Cumulative time (in ticks) in various power states
system.mem_ctrls.bytes_read::cpu0.inst            192                       # Number of bytes read from this memory
system.mem_ctrls.bytes_read::cpu0.data        1003136                       # Number of bytes read from this memory
system.mem_ctrls.bytes_read::total            1003328                       # Number of bytes read from this memory
system.mem_ctrls.bytes_inst_read::cpu0.inst          192                       # Number of instructions bytes read from this memory
system.mem_ctrls.bytes_inst_read::total           192                       # Number of instructions bytes read from this memory
system.mem_ctrls.bytes_written::writebacks       968704                       # Number of bytes written to this memory
system.mem_ctrls.bytes_written::total          968704                       # Number of bytes written to this memory
system.mem_ctrls.num_reads::cpu0.inst               3                       # Number of read requests responded to by this memory
system.mem_ctrls.num_reads::cpu0.data           15674                       # Number of read requests responded to by this memory
system.mem_ctrls.num_reads::total               15677                       # Number of read requests responded to by this memory
system.mem_ctrls.num_writes::writebacks         15136                       # Number of write requests responded to by this memory
system.mem_ctrls.num_writes::total              15136                       # Number of write requests responded to by this memory
system.mem_ctrls.bw_read::cpu0.inst             12576                       # Total read bandwidth from this memory (bytes/s)
system.mem_ctrls.bw_read::cpu0.data          65704683                       # Total read bandwidth from this memory (bytes/s)
system.mem_ctrls.bw_read::total              65717258                       # Total read bandwidth from this memory (bytes/s)
system.mem_ctrls.bw_inst_read::cpu0.inst        12576                       # Instruction read bandwidth from this memory (bytes/s)
system.mem_ctrls.bw_inst_read::total            12576                       # Instruction read bandwidth from this memory (bytes/s)
system.mem_ctrls.bw_write::writebacks        63449412                       # Write bandwidth from this memory (bytes/s)
system.mem_ctrls.bw_write::total             63449412                       # Write bandwidth from this memory (bytes/s)
system.mem_ctrls.bw_total::writebacks        63449412                       # Total bandwidth to/from this memory (bytes/s)
system.mem_ctrls.bw_total::cpu0.inst            12576                       # Total bandwidth to/from this memory (bytes/s)
system.mem_ctrls.bw_total::cpu0.data         65704683                       # Total bandwidth to/from this memory (bytes/s)
system.mem_ctrls.bw_total::total            129166670                       # Total bandwidth to/from this memory (bytes/s)
system.mem_ctrls.readReqs                       15677                       # Number of read requests accepted
system.mem_ctrls.writeReqs                      15136                       # Number of write requests accepted
system.mem_ctrls.readBursts                     15677                       # Number of DRAM read bursts, including those serviced by the write queue
system.mem_ctrls.writeBursts                    15136                       # Number of DRAM write bursts, including those merged in the write queue
system.mem_ctrls.bytesReadDRAM                1002880                       # Total number of bytes read from DRAM
system.mem_ctrls.bytesReadWrQ                     448                       # Total number of bytes read from write queue
system.mem_ctrls.bytesWritten                  967936                       # Total number of bytes written to DRAM
system.mem_ctrls.bytesReadSys                 1003328                       # Total read bytes from the system interface side
system.mem_ctrls.bytesWrittenSys               968704                       # Total written bytes from the system interface side
system.mem_ctrls.servicedByWrQ                      7                       # Number of DRAM read bursts serviced by the write queue
system.mem_ctrls.mergedWrBursts                     0                       # Number of DRAM write bursts merged with an existing one
system.mem_ctrls.neitherReadNorWriteReqs            0                       # Number of requests that are neither read nor write
system.mem_ctrls.perBankRdBursts::0              1110                       # Per bank write bursts
system.mem_ctrls.perBankRdBursts::1              1145                       # Per bank write bursts
system.mem_ctrls.perBankRdBursts::2              1032                       # Per bank write bursts
system.mem_ctrls.perBankRdBursts::3              1011                       # Per bank write bursts
system.mem_ctrls.perBankRdBursts::4               989                       # Per bank write bursts
system.mem_ctrls.perBankRdBursts::5               985                       # Per bank write bursts
system.mem_ctrls.perBankRdBursts::6               894                       # Per bank write bursts
system.mem_ctrls.perBankRdBursts::7               938                       # Per bank write bursts
system.mem_ctrls.perBankRdBursts::8               884                       # Per bank write bursts
system.mem_ctrls.perBankRdBursts::9               867                       # Per bank write bursts
system.mem_ctrls.perBankRdBursts::10              912                       # Per bank write bursts
system.mem_ctrls.perBankRdBursts::11              964                       # Per bank write bursts
system.mem_ctrls.perBankRdBursts::12              886                       # Per bank write bursts
system.mem_ctrls.perBankRdBursts::13             1012                       # Per bank write bursts
system.mem_ctrls.perBankRdBursts::14             1016                       # Per bank write bursts
system.mem_ctrls.perBankRdBursts::15             1025                       # Per bank write bursts
system.mem_ctrls.perBankWrBursts::0              1097                       # Per bank write bursts
system.mem_ctrls.perBankWrBursts::1              1106                       # Per bank write bursts
system.mem_ctrls.perBankWrBursts::2               989                       # Per bank write bursts
system.mem_ctrls.perBankWrBursts::3               977                       # Per bank write bursts
system.mem_ctrls.perBankWrBursts::4               946                       # Per bank write bursts
system.mem_ctrls.perBankWrBursts::5               930                       # Per bank write bursts
system.mem_ctrls.perBankWrBursts::6               851                       # Per bank write bursts
system.mem_ctrls.perBankWrBursts::7               896                       # Per bank write bursts
system.mem_ctrls.perBankWrBursts::8               859                       # Per bank write bursts
system.mem_ctrls.perBankWrBursts::9               842                       # Per bank write bursts
system.mem_ctrls.perBankWrBursts::10              885                       # Per bank write bursts
system.mem_ctrls.perBankWrBursts::11              932                       # Per bank write bursts
system.mem_ctrls.perBankWrBursts::12              856                       # Per bank write bursts
system.mem_ctrls.perBankWrBursts::13              977                       # Per bank write bursts
system.mem_ctrls.perBankWrBursts::14              986                       # Per bank write bursts
system.mem_ctrls.perBankWrBursts::15              995                       # Per bank write bursts
system.mem_ctrls.numRdRetry                         0                       # Number of times read queue was full causing retry
system.mem_ctrls.numWrRetry                         0                       # Number of times write queue was full causing retry
system.mem_ctrls.totGap                   15266435000                       # Total gap between requests
system.mem_ctrls.readPktSize::0                     0                       # Read request sizes (log2)
system.mem_ctrls.readPktSize::1                     0                       # Read request sizes (log2)
system.mem_ctrls.readPktSize::2                     0                       # Read request sizes (log2)
system.mem_ctrls.readPktSize::3                     0                       # Read request sizes (log2)
system.mem_ctrls.readPktSize::4                     0                       # Read request sizes (log2)
system.mem_ctrls.readPktSize::5                     0                       # Read request sizes (log2)
system.mem_ctrls.readPktSize::6                 15677                       # Read request sizes (log2)
system.mem_ctrls.writePktSize::0                    0                       # Write request sizes (log2)
system.mem_ctrls.writePktSize::1                    0                       # Write request sizes (log2)
system.mem_ctrls.writePktSize::2                    0                       # Write request sizes (log2)
system.mem_ctrls.writePktSize::3                    0                       # Write request sizes (log2)
system.mem_ctrls.writePktSize::4                    0                       # Write request sizes (log2)
system.mem_ctrls.writePktSize::5                    0                       # Write request sizes (log2)
system.mem_ctrls.writePktSize::6                15136                       # Write request sizes (log2)
system.mem_ctrls.rdQLenPdf::0                   14818                       # What read queue length does an incoming req see
system.mem_ctrls.rdQLenPdf::1                     841                       # What read queue length does an incoming req see
system.mem_ctrls.rdQLenPdf::2                      11                       # What read queue length does an incoming req see
system.mem_ctrls.rdQLenPdf::3                       0                       # What read queue length does an incoming req see
system.mem_ctrls.rdQLenPdf::4                       0                       # What read queue length does an incoming req see
system.mem_ctrls.rdQLenPdf::5                       0                       # What read queue length does an incoming req see
system.mem_ctrls.rdQLenPdf::6                       0                       # What read queue length does an incoming req see
system.mem_ctrls.rdQLenPdf::7                       0                       # What read queue length does an incoming req see
system.mem_ctrls.rdQLenPdf::8                       0                       # What read queue length does an incoming req see
system.mem_ctrls.rdQLenPdf::9                       0                       # What read queue length does an incoming req see
system.mem_ctrls.rdQLenPdf::10                      0                       # What read queue length does an incoming req see
system.mem_ctrls.rdQLenPdf::11                      0                       # What read queue length does an incoming req see
system.mem_ctrls.rdQLenPdf::12                      0                       # What read queue length does an incoming req see
system.mem_ctrls.rdQLenPdf::13                      0                       # What read queue length does an incoming req see
system.mem_ctrls.rdQLenPdf::14                      0                       # What read queue length does an incoming req see
system.mem_ctrls.rdQLenPdf::15                      0                       # What read queue length does an incoming req see
system.mem_ctrls.rdQLenPdf::16                      0                       # What read queue length does an incoming req see
system.mem_ctrls.rdQLenPdf::17                      0                       # What read queue length does an incoming req see
system.mem_ctrls.rdQLenPdf::18                      0                       # What read queue length does an incoming req see
system.mem_ctrls.rdQLenPdf::19                      0                       # What read queue length does an incoming req see
system.mem_ctrls.rdQLenPdf::20                      0                       # What read queue length does an incoming req see
system.mem_ctrls.rdQLenPdf::21                      0                       # What read queue length does an incoming req see
system.mem_ctrls.rdQLenPdf::22                      0                       # What read queue length does an incoming req see
system.mem_ctrls.rdQLenPdf::23                      0                       # What read queue length does an incoming req see
system.mem_ctrls.rdQLenPdf::24                      0                       # What read queue length does an incoming req see
system.mem_ctrls.rdQLenPdf::25                      0                       # What read queue length does an incoming req see
system.mem_ctrls.rdQLenPdf::26                      0                       # What read queue length does an incoming req see
system.mem_ctrls.rdQLenPdf::27                      0                       # What read queue length does an incoming req see
system.mem_ctrls.rdQLenPdf::28                      0                       # What read queue length does an incoming req see
system.mem_ctrls.rdQLenPdf::29                      0                       # What read queue length does an incoming req see
system.mem_ctrls.rdQLenPdf::30                      0                       # What read queue length does an incoming req see
system.mem_ctrls.rdQLenPdf::31                      0                       # What read queue length does an incoming req see
system.mem_ctrls.wrQLenPdf::0                       0                       # What write queue length does an incoming req see
system.mem_ctrls.wrQLenPdf::1                       0                       # What write queue length does an incoming req see
system.mem_ctrls.wrQLenPdf::2                       0                       # What write queue length does an incoming req see
system.mem_ctrls.wrQLenPdf::3                       0                       # What write queue length does an incoming req see
system.mem_ctrls.wrQLenPdf::4                       0                       # What write queue length does an incoming req see
system.mem_ctrls.wrQLenPdf::5                       0                       # What write queue length does an incoming req see
system.mem_ctrls.wrQLenPdf::6                       0                       # What write queue length does an incoming req see
system.mem_ctrls.wrQLenPdf::7                       0                       # What write queue length does an incoming req see
system.mem_ctrls.wrQLenPdf::8                       0                       # What write queue length does an incoming req see
system.mem_ctrls.wrQLenPdf::9                       0                       # What write queue length does an incoming req see
system.mem_ctrls.wrQLenPdf::10                      0                       # What write queue length does an incoming req see
system.mem_ctrls.wrQLenPdf::11                      0                       # What write queue length does an incoming req see
system.mem_ctrls.wrQLenPdf::12                      0                       # What write queue length does an incoming req see
system.mem_ctrls.wrQLenPdf::13                      0                       # What write queue length does an incoming req see
system.mem_ctrls.wrQLenPdf::14                      0                       # What write queue length does an incoming req see
system.mem_ctrls.wrQLenPdf::15                    572                       # What write queue length does an incoming req see
system.mem_ctrls.wrQLenPdf::16                    594                       # What write queue length does an incoming req see
system.mem_ctrls.wrQLenPdf::17                    858                       # What write queue length does an incoming req see
system.mem_ctrls.wrQLenPdf::18                    868                       # What write queue length does an incoming req see
system.mem_ctrls.wrQLenPdf::19                    871                       # What write queue length does an incoming req see
system.mem_ctrls.wrQLenPdf::20                    871                       # What write queue length does an incoming req see
system.mem_ctrls.wrQLenPdf::21                    873                       # What write queue length does an incoming req see
system.mem_ctrls.wrQLenPdf::22                    872                       # What write queue length does an incoming req see
system.mem_ctrls.wrQLenPdf::23                    874                       # What write queue length does an incoming req see
system.mem_ctrls.wrQLenPdf::24                    875                       # What write queue length does an incoming req see
system.mem_ctrls.wrQLenPdf::25                    875                       # What write queue length does an incoming req see
system.mem_ctrls.wrQLenPdf::26                    876                       # What write queue length does an incoming req see
system.mem_ctrls.wrQLenPdf::27                    874                       # What write queue length does an incoming req see
system.mem_ctrls.wrQLenPdf::28                    873                       # What write queue length does an incoming req see
system.mem_ctrls.wrQLenPdf::29                    870                       # What write queue length does an incoming req see
system.mem_ctrls.wrQLenPdf::30                    898                       # What write queue length does an incoming req see
system.mem_ctrls.wrQLenPdf::31                    872                       # What write queue length does an incoming req see
system.mem_ctrls.wrQLenPdf::32                    870                       # What write queue length does an incoming req see
system.mem_ctrls.wrQLenPdf::33                      0                       # What write queue length does an incoming req see
system.mem_ctrls.wrQLenPdf::34                      0                       # What write queue length does an incoming req see
system.mem_ctrls.wrQLenPdf::35                      0                       # What write queue length does an incoming req see
system.mem_ctrls.wrQLenPdf::36                      0                       # What write queue length does an incoming req see
system.mem_ctrls.wrQLenPdf::37                      0                       # What write queue length does an incoming req see
system.mem_ctrls.wrQLenPdf::38                      0                       # What write queue length does an incoming req see
system.mem_ctrls.wrQLenPdf::39                      0                       # What write queue length does an incoming req see
system.mem_ctrls.wrQLenPdf::40                      0                       # What write queue length does an incoming req see
system.mem_ctrls.wrQLenPdf::41                      0                       # What write queue length does an incoming req see
system.mem_ctrls.wrQLenPdf::42                      0                       # What write queue length does an incoming req see
system.mem_ctrls.wrQLenPdf::43                      0                       # What write queue length does an incoming req see
system.mem_ctrls.wrQLenPdf::44                      0                       # What write queue length does an incoming req see
system.mem_ctrls.wrQLenPdf::45                      0                       # What write queue length does an incoming req see
system.mem_ctrls.wrQLenPdf::46                      0                       # What write queue length does an incoming req see
system.mem_ctrls.wrQLenPdf::47                      0                       # What write queue length does an incoming req see
system.mem_ctrls.wrQLenPdf::48                      0                       # What write queue length does an incoming req see
system.mem_ctrls.wrQLenPdf::49                      0                       # What write queue length does an incoming req see
system.mem_ctrls.wrQLenPdf::50                      0                       # What write queue length does an incoming req see
system.mem_ctrls.wrQLenPdf::51                      0                       # What write queue length does an incoming req see
system.mem_ctrls.wrQLenPdf::52                      0                       # What write queue length does an incoming req see
system.mem_ctrls.wrQLenPdf::53                      0                       # What write queue length does an incoming req see
system.mem_ctrls.wrQLenPdf::54                      0                       # What write queue length does an incoming req see
system.mem_ctrls.wrQLenPdf::55                      0                       # What write queue length does an incoming req see
system.mem_ctrls.wrQLenPdf::56                      0                       # What write queue length does an incoming req see
system.mem_ctrls.wrQLenPdf::57                      0                       # What write queue length does an incoming req see
system.mem_ctrls.wrQLenPdf::58                      0                       # What write queue length does an incoming req see
system.mem_ctrls.wrQLenPdf::59                      0                       # What write queue length does an incoming req see
system.mem_ctrls.wrQLenPdf::60                      0                       # What write queue length does an incoming req see
system.mem_ctrls.wrQLenPdf::61                      0                       # What write queue length does an incoming req see
system.mem_ctrls.wrQLenPdf::62                      0                       # What write queue length does an incoming req see
system.mem_ctrls.wrQLenPdf::63                      0                       # What write queue length does an incoming req see
system.mem_ctrls.bytesPerActivate::samples        20356                       # Bytes accessed per row activation
system.mem_ctrls.bytesPerActivate::mean     96.830026                       # Bytes accessed per row activation
system.mem_ctrls.bytesPerActivate::gmean    84.792442                       # Bytes accessed per row activation
system.mem_ctrls.bytesPerActivate::stdev    63.793055                       # Bytes accessed per row activation
system.mem_ctrls.bytesPerActivate::64-127        14151     69.52%     69.52% # Bytes accessed per row activation
system.mem_ctrls.bytesPerActivate::128-191         3830     18.82%     88.33% # Bytes accessed per row activation
system.mem_ctrls.bytesPerActivate::192-255         1305      6.41%     94.74% # Bytes accessed per row activation
system.mem_ctrls.bytesPerActivate::256-319          632      3.10%     97.85% # Bytes accessed per row activation
system.mem_ctrls.bytesPerActivate::320-383          253      1.24%     99.09% # Bytes accessed per row activation
system.mem_ctrls.bytesPerActivate::384-447           98      0.48%     99.57% # Bytes accessed per row activation
system.mem_ctrls.bytesPerActivate::448-511           45      0.22%     99.79% # Bytes accessed per row activation
system.mem_ctrls.bytesPerActivate::512-575           19      0.09%     99.89% # Bytes accessed per row activation
system.mem_ctrls.bytesPerActivate::576-639           15      0.07%     99.96% # Bytes accessed per row activation
system.mem_ctrls.bytesPerActivate::640-703            4      0.02%     99.98% # Bytes accessed per row activation
system.mem_ctrls.bytesPerActivate::704-767            1      0.00%     99.99% # Bytes accessed per row activation
system.mem_ctrls.bytesPerActivate::768-831            1      0.00%     99.99% # Bytes accessed per row activation
system.mem_ctrls.bytesPerActivate::832-895            2      0.01%    100.00% # Bytes accessed per row activation
system.mem_ctrls.bytesPerActivate::total        20356                       # Bytes accessed per row activation
system.mem_ctrls.rdPerTurnAround::samples          870                       # Reads before turning the bus around for writes
system.mem_ctrls.rdPerTurnAround::mean             18                       # Reads before turning the bus around for writes
system.mem_ctrls.rdPerTurnAround::gmean     17.951496                       # Reads before turning the bus around for writes
system.mem_ctrls.rdPerTurnAround::stdev      1.316445                       # Reads before turning the bus around for writes
system.mem_ctrls.rdPerTurnAround::14                2      0.23%      0.23% # Reads before turning the bus around for writes
system.mem_ctrls.rdPerTurnAround::15               10      1.15%      1.38% # Reads before turning the bus around for writes
system.mem_ctrls.rdPerTurnAround::16              146     16.78%     18.16% # Reads before turning the bus around for writes
system.mem_ctrls.rdPerTurnAround::17               85      9.77%     27.93% # Reads before turning the bus around for writes
system.mem_ctrls.rdPerTurnAround::18              327     37.59%     65.52% # Reads before turning the bus around for writes
system.mem_ctrls.rdPerTurnAround::19              213     24.48%     90.00% # Reads before turning the bus around for writes
system.mem_ctrls.rdPerTurnAround::20               65      7.47%     97.47% # Reads before turning the bus around for writes
system.mem_ctrls.rdPerTurnAround::21               17      1.95%     99.43% # Reads before turning the bus around for writes
system.mem_ctrls.rdPerTurnAround::22                4      0.46%     99.89% # Reads before turning the bus around for writes
system.mem_ctrls.rdPerTurnAround::23                1      0.11%    100.00% # Reads before turning the bus around for writes
system.mem_ctrls.rdPerTurnAround::total           870                       # Reads before turning the bus around for writes
system.mem_ctrls.wrPerTurnAround::samples          870                       # Writes before turning the bus around for reads
system.mem_ctrls.wrPerTurnAround::mean      17.383908                       # Writes before turning the bus around for reads
system.mem_ctrls.wrPerTurnAround::gmean     17.355667                       # Writes before turning the bus around for reads
system.mem_ctrls.wrPerTurnAround::stdev      0.980697                       # Writes before turning the bus around for reads
system.mem_ctrls.wrPerTurnAround::16              276     31.72%     31.72% # Writes before turning the bus around for reads
system.mem_ctrls.wrPerTurnAround::17               22      2.53%     34.25% # Writes before turning the bus around for reads
system.mem_ctrls.wrPerTurnAround::18              535     61.49%     95.75% # Writes before turning the bus around for reads
system.mem_ctrls.wrPerTurnAround::19               36      4.14%     99.89% # Writes before turning the bus around for reads
system.mem_ctrls.wrPerTurnAround::20                1      0.11%    100.00% # Writes before turning the bus around for reads
system.mem_ctrls.wrPerTurnAround::total           870                       # Writes before turning the bus around for reads
system.mem_ctrls.totQLat                    435518750                       # Total ticks spent queuing
system.mem_ctrls.totMemAccLat               729331250                       # Total ticks spent from burst creation until serviced by the DRAM
system.mem_ctrls.totBusLat                   78350000                       # Total ticks spent in databus transfers
system.mem_ctrls.avgQLat                     27793.16                       # Average queueing delay per DRAM burst
system.mem_ctrls.avgBusLat                    5000.00                       # Average bus latency per DRAM burst
system.mem_ctrls.avgMemAccLat                46543.16                       # Average memory access latency per DRAM burst
system.mem_ctrls.avgRdBW                        65.69                       # Average DRAM read bandwidth in MiByte/s
system.mem_ctrls.avgWrBW                        63.40                       # Average achieved write bandwidth in MiByte/s
system.mem_ctrls.avgRdBWSys                     65.72                       # Average system read bandwidth in MiByte/s
system.mem_ctrls.avgWrBWSys                     63.45                       # Average system write bandwidth in MiByte/s
system.mem_ctrls.peakBW                      12800.00                       # Theoretical peak bandwidth in MiByte/s
system.mem_ctrls.busUtil                         1.01                       # Data bus utilization in percentage
system.mem_ctrls.busUtilRead                     0.51                       # Data bus utilization in percentage for reads
system.mem_ctrls.busUtilWrite                    0.50                       # Data bus utilization in percentage for writes
system.mem_ctrls.avgRdQLen                       1.08                       # Average read queue length when enqueuing
system.mem_ctrls.avgWrQLen                      24.89                       # Average write queue length when enqueuing
system.mem_ctrls.readRowHits                     5635                       # Number of row buffer hits during reads
system.mem_ctrls.writeRowHits                    4808                       # Number of row buffer hits during writes
system.mem_ctrls.readRowHitRate                 35.96                       # Row buffer hit rate for reads
system.mem_ctrls.writeRowHitRate                31.77                       # Row buffer hit rate for writes
system.mem_ctrls.avgGap                     495454.35                       # Average gap between requests
system.mem_ctrls.pageHitRate                    33.90                       # Row buffer hit rate, read and write combined
system.mem_ctrls_0.actEnergy                 74063220                       # Energy for activate commands per rank (pJ)
system.mem_ctrls_0.preEnergy                 39373125                       # Energy for precharge commands per rank (pJ)
system.mem_ctrls_0.readEnergy                57862560                       # Energy for read commands per rank (pJ)
system.mem_ctrls_0.writeEnergy               40674240                       # Energy for write commands per rank (pJ)
system.mem_ctrls_0.refreshEnergy         1223748240.000000                       # Energy for refresh commands per rank (pJ)
system.mem_ctrls_0.actBackEnergy            972829260                       # Energy for active background per rank (pJ)
system.mem_ctrls_0.preBackEnergy             32009760                       # Energy for precharge background per rank (pJ)
system.mem_ctrls_0.actPowerDownEnergy      4445665980                       # Energy for active power-down per rank (pJ)
system.mem_ctrls_0.prePowerDownEnergy      1221085920                       # Energy for precharge power-down per rank (pJ)
system.mem_ctrls_0.selfRefreshEnergy         56197860                       # Energy for self refresh per rank (pJ)
system.mem_ctrls_0.totalEnergy             8163955095                       # Total energy per rank (pJ)
system.mem_ctrls_0.averagePower            534.733155                       # Core power per rank (mW)
system.mem_ctrls_0.totalIdleTime          13047983875                       # Total Idle time Per DRAM Rank
system.mem_ctrls_0.memoryStateTime::IDLE     24347250                       # Time in different power states
system.mem_ctrls_0.memoryStateTime::REF     517996000                       # Time in different power states
system.mem_ctrls_0.memoryStateTime::SREF    120416250                       # Time in different power states
system.mem_ctrls_0.memoryStateTime::PRE_PDN   3179675750                       # Time in different power states
system.mem_ctrls_0.memoryStateTime::ACT    1675535000                       # Time in different power states
system.mem_ctrls_0.memoryStateTime::ACT_PDN   9749373875                       # Time in different power states
system.mem_ctrls_1.actEnergy                 71242920                       # Energy for activate commands per rank (pJ)
system.mem_ctrls_1.preEnergy                 37877895                       # Energy for precharge commands per rank (pJ)
system.mem_ctrls_1.readEnergy                54021240                       # Energy for read commands per rank (pJ)
system.mem_ctrls_1.writeEnergy               38273040                       # Energy for write commands per rank (pJ)
system.mem_ctrls_1.refreshEnergy         1229280000.000000                       # Energy for refresh commands per rank (pJ)
system.mem_ctrls_1.actBackEnergy            962933490                       # Energy for active background per rank (pJ)
system.mem_ctrls_1.preBackEnergy             36561120                       # Energy for precharge background per rank (pJ)
system.mem_ctrls_1.actPowerDownEnergy      4297912860                       # Energy for active power-down per rank (pJ)
system.mem_ctrls_1.prePowerDownEnergy      1297083360                       # Energy for precharge power-down per rank (pJ)
system.mem_ctrls_1.selfRefreshEnergy        104290680                       # Energy for self refresh per rank (pJ)
system.mem_ctrls_1.totalEnergy             8130052095                       # Total energy per rank (pJ)
system.mem_ctrls_1.averagePower            532.512533                       # Core power per rank (mW)
system.mem_ctrls_1.totalIdleTime          13055749250                       # Total Idle time Per DRAM Rank
system.mem_ctrls_1.memoryStateTime::IDLE     38838750                       # Time in different power states
system.mem_ctrls_1.memoryStateTime::REF     520486000                       # Time in different power states
system.mem_ctrls_1.memoryStateTime::SREF    256085500                       # Time in different power states
system.mem_ctrls_1.memoryStateTime::PRE_PDN   3377813500                       # Time in different power states
system.mem_ctrls_1.memoryStateTime::ACT    1648903625                       # Time in different power states
system.mem_ctrls_1.memoryStateTime::ACT_PDN   9425216750                       # Time in different power states
system.pwrStateResidencyTicks::UNDEFINED  15267344125                       # Cumulative time (in ticks) in various power states
system.cpu0.branchPred.lookups               13298167                       # Number of BP lookups
system.cpu0.branchPred.condPredicted         13298167                       # Number of conditional branches predicted
system.cpu0.branchPred.condIncorrect          1382017                       # Number of conditional branches incorrect
system.cpu0.branchPred.BTBLookups            11172526                       # Number of BTB lookups
system.cpu0.branchPred.BTBHits                      0                       # Number of BTB hits
system.cpu0.branchPred.BTBCorrect                   0                       # Number of correct BTB predictions (this stat may not work properly.
system.cpu0.branchPred.BTBHitPct             0.000000                       # BTB Hit Percentage
system.cpu0.branchPred.usedRAS                1080303                       # Number of times the RAS was used to get a target.
system.cpu0.branchPred.RASInCorrect            191200                       # Number of incorrect RAS predictions.
system.cpu0.branchPred.indirectLookups       11172526                       # Number of indirect predictor lookups.
system.cpu0.branchPred.indirectHits           2687009                       # Number of indirect target hits.
system.cpu0.branchPred.indirectMisses         8485517                       # Number of indirect misses.
system.cpu0.branchPredindirectMispredicted       914695                       # Number of mispredicted indirect branches.
system.cpu_voltage_domain.voltage                   1                       # Voltage in Volts
system.cpu_clk_domain.clock                       500                       # Clock period in ticks
system.cpu0.dtb.walker.pwrStateResidencyTicks::UNDEFINED  15267344125                       # Cumulative time (in ticks) in various power states
system.cpu0.dtb.rdAccesses                    7002322                       # TLB accesses on read requests
system.cpu0.dtb.wrAccesses                    2373008                       # TLB accesses on write requests
system.cpu0.dtb.rdMisses                        88109                       # TLB misses on read requests
system.cpu0.dtb.wrMisses                        19874                       # TLB misses on write requests
system.cpu0.apic_clk_domain.clock                8000                       # Clock period in ticks
system.cpu0.interrupts.pwrStateResidencyTicks::UNDEFINED  15267344125                       # Cumulative time (in ticks) in various power states
system.cpu0.itb.walker.pwrStateResidencyTicks::UNDEFINED  15267344125                       # Cumulative time (in ticks) in various power states
system.cpu0.itb.rdAccesses                          0                       # TLB accesses on read requests
system.cpu0.itb.wrAccesses                    6592358                       # TLB accesses on write requests
system.cpu0.itb.rdMisses                            0                       # TLB misses on read requests
system.cpu0.itb.wrMisses                         2611                       # TLB misses on write requests
system.cpu0.workload.numSyscalls                   19                       # Number of system calls
system.cpu0.pwrStateResidencyTicks::ON    15267344125                       # Cumulative time (in ticks) in various power states
system.cpu0.numCycles                        30534688                       # number of cpu cycles simulated
system.cpu0.numWorkItemsStarted                     0                       # number of work items this cpu started
system.cpu0.numWorkItemsCompleted                   0                       # number of work items this cpu completed
system.cpu0.fetch.icacheStallCycles           7508072                       # Number of cycles fetch is stalled on an Icache miss
system.cpu0.fetch.Insts                      56813496                       # Number of instructions fetch has processed
system.cpu0.fetch.Branches                   13298167                       # Number of branches that fetch encountered
system.cpu0.fetch.predictedBranches           3767312                       # Number of branches that fetch has predicted taken
system.cpu0.fetch.Cycles                     21619275                       # Number of cycles fetch has run and was not squashing or blocked
system.cpu0.fetch.SquashCycles                2766252                       # Number of cycles fetch has spent squashing
system.cpu0.fetch.MiscStallCycles                 926                       # Number of cycles fetch has spent waiting on interrupts, or bad addresses, or out of MSHRs
system.cpu0.fetch.PendingTrapStallCycles        15165                       # Number of stall cycles due to pending traps
system.cpu0.fetch.CacheLines                  6589747                       # Number of cache lines fetched
system.cpu0.fetch.IcacheSquashes               321143                       # Number of outstanding Icache misses that were squashed
system.cpu0.fetch.rateDist::samples          30526564                       # Number of instructions fetched each cycle (Total)
system.cpu0.fetch.rateDist::mean             4.052249                       # Number of instructions fetched each cycle (Total)
system.cpu0.fetch.rateDist::stdev            3.668794                       # Number of instructions fetched each cycle (Total)
system.cpu0.fetch.rateDist::underflows              0      0.00%      0.00% # Number of instructions fetched each cycle (Total)
system.cpu0.fetch.rateDist::0                12026255     39.40%     39.40% # Number of instructions fetched each cycle (Total)
system.cpu0.fetch.rateDist::1                  528344      1.73%     41.13% # Number of instructions fetched each cycle (Total)
system.cpu0.fetch.rateDist::2                  909880      2.98%     44.11% # Number of instructions fetched each cycle (Total)
system.cpu0.fetch.rateDist::3                 1345619      4.41%     48.52% # Number of instructions fetched each cycle (Total)
system.cpu0.fetch.rateDist::4                  611616      2.00%     50.52% # Number of instructions fetched each cycle (Total)
system.cpu0.fetch.rateDist::5                 1151128      3.77%     54.29% # Number of instructions fetched each cycle (Total)
system.cpu0.fetch.rateDist::6                 1005402      3.29%     57.58% # Number of instructions fetched each cycle (Total)
system.cpu0.fetch.rateDist::7                  504813      1.65%     59.24% # Number of instructions fetched each cycle (Total)
system.cpu0.fetch.rateDist::8                12443507     40.76%    100.00% # Number of instructions fetched each cycle (Total)
system.cpu0.fetch.rateDist::overflows               0      0.00%    100.00% # Number of instructions fetched each cycle (Total)
system.cpu0.fetch.rateDist::min_value               0                       # Number of instructions fetched each cycle (Total)
system.cpu0.fetch.rateDist::max_value               8                       # Number of instructions fetched each cycle (Total)
system.cpu0.fetch.rateDist::total            30526564                       # Number of instructions fetched each cycle (Total)
system.cpu0.fetch.branchRate                 0.435510                       # Number of branch fetches per cycle
system.cpu0.fetch.rate                       1.860621                       # Number of inst fetches per cycle
system.cpu0.decode.IdleCycles                 5686776                       # Number of cycles decode is idle
system.cpu0.decode.BlockedCycles              8159399                       # Number of cycles decode is blocked
system.cpu0.decode.RunCycles                 13835827                       # Number of cycles decode is running
system.cpu0.decode.UnblockCycles              1461436                       # Number of cycles decode is unblocking
system.cpu0.decode.SquashCycles               1383126                       # Number of cycles decode is squashing
system.cpu0.decode.DecodedInsts             110942418                       # Number of instructions handled by decode
system.cpu0.rename.SquashCycles               1383126                       # Number of cycles rename is squashing
system.cpu0.rename.IdleCycles                 6764884                       # Number of cycles rename is idle
system.cpu0.rename.BlockCycles                6721003                       # Number of cycles rename is blocking
system.cpu0.rename.serializeStallCycles        239258                       # count of cycles rename stalled for serializing inst
system.cpu0.rename.RunCycles                 14007358                       # Number of cycles rename is running
system.cpu0.rename.UnblockCycles              1410935                       # Number of cycles rename is unblocking
system.cpu0.rename.RenamedInsts             103782782                       # Number of instructions processed by rename
system.cpu0.rename.ROBFullEvents                27767                       # Number of times rename has blocked due to ROB full
system.cpu0.rename.IQFullEvents                771121                       # Number of times rename has blocked due to IQ full
system.cpu0.rename.LQFullEvents                   279                       # Number of times rename has blocked due to LQ full
system.cpu0.rename.SQFullEvents                409555                       # Number of times rename has blocked due to SQ full
system.cpu0.rename.RenamedOperands          116768968                       # Number of destination operands rename has renamed
system.cpu0.rename.RenameLookups            257575068                       # Number of register rename lookups that rename has made
system.cpu0.rename.int_rename_lookups       141268326                       # Number of integer rename lookups
system.cpu0.rename.fp_rename_lookups         19600109                       # Number of floating rename lookups
system.cpu0.rename.CommittedMaps             48761913                       # Number of HB maps that are committed
system.cpu0.rename.UndoneMaps                68006973                       # Number of HB maps that are undone due to squashing
system.cpu0.rename.serializingInsts             30007                       # count of serializing insts renamed
system.cpu0.rename.tempSerializingInsts         32467                       # count of temporary serializing insts renamed
system.cpu0.rename.skidInsts                  3361206                       # count of insts added to the skid buffer
system.cpu0.memDep0.insertedLoads             9560339                       # Number of loads inserted to the mem dependence unit.
system.cpu0.memDep0.insertedStores            3294411                       # Number of stores inserted to the mem dependence unit.
system.cpu0.memDep0.conflictingLoads           158798                       # Number of conflicting loads.
system.cpu0.memDep0.conflictingStores          164683                       # Number of conflicting stores.
system.cpu0.iq.iqInstsAdded                  90052676                       # Number of instructions added to the IQ (excludes non-spec)
system.cpu0.iq.iqNonSpecInstsAdded             210445                       # Number of non-speculative instructions added to the IQ
system.cpu0.iq.iqInstsIssued                 71524309                       # Number of instructions issued
system.cpu0.iq.iqSquashedInstsIssued           679059                       # Number of squashed instructions issued
system.cpu0.iq.iqSquashedInstsExamined       48183947                       # Number of squashed instructions iterated over during squash; mainly for profiling
system.cpu0.iq.iqSquashedOperandsExamined     70084472                       # Number of squashed operands that are examined and possibly removed from graph
system.cpu0.iq.iqSquashedNonSpecRemoved        210336                       # Number of squashed non-spec instructions that were removed
system.cpu0.iq.issued_per_cycle::samples     30526564                       # Number of insts issued each cycle
system.cpu0.iq.issued_per_cycle::mean        2.343019                       # Number of insts issued each cycle
system.cpu0.iq.issued_per_cycle::stdev       2.592452                       # Number of insts issued each cycle
system.cpu0.iq.issued_per_cycle::underflows            0      0.00%      0.00% # Number of insts issued each cycle
system.cpu0.iq.issued_per_cycle::0           13172024     43.15%     43.15% # Number of insts issued each cycle
system.cpu0.iq.issued_per_cycle::1            2236021      7.32%     50.47% # Number of insts issued each cycle
system.cpu0.iq.issued_per_cycle::2            2779993      9.11%     59.58% # Number of insts issued each cycle
system.cpu0.iq.issued_per_cycle::3            2350917      7.70%     67.28% # Number of insts issued each cycle
system.cpu0.iq.issued_per_cycle::4            2379728      7.80%     75.08% # Number of insts issued each cycle
system.cpu0.iq.issued_per_cycle::5            2256599      7.39%     82.47% # Number of insts issued each cycle
system.cpu0.iq.issued_per_cycle::6            2654123      8.69%     91.16% # Number of insts issued each cycle
system.cpu0.iq.issued_per_cycle::7            1628366      5.33%     96.50% # Number of insts issued each cycle
system.cpu0.iq.issued_per_cycle::8            1068793      3.50%    100.00% # Number of insts issued each cycle
system.cpu0.iq.issued_per_cycle::overflows            0      0.00%    100.00% # Number of insts issued each cycle
system.cpu0.iq.issued_per_cycle::min_value            0                       # Number of insts issued each cycle
system.cpu0.iq.issued_per_cycle::max_value            8                       # Number of insts issued each cycle
system.cpu0.iq.issued_per_cycle::total       30526564                       # Number of insts issued each cycle
system.cpu0.iq.fu_full::No_OpClass                  0      0.00%      0.00% # attempts to use FU when none available
system.cpu0.iq.fu_full::IntAlu                1437307     92.70%     92.70% # attempts to use FU when none available
system.cpu0.iq.fu_full::IntMult                     0      0.00%     92.70% # attempts to use FU when none available
system.cpu0.iq.fu_full::IntDiv                      0      0.00%     92.70% # attempts to use FU when none available
system.cpu0.iq.fu_full::FloatAdd                81277      5.24%     97.94% # attempts to use FU when none available
system.cpu0.iq.fu_full::FloatCmp                    0      0.00%     97.94% # attempts to use FU when none available
system.cpu0.iq.fu_full::FloatCvt                    0      0.00%     97.94% # attempts to use FU when none available
system.cpu0.iq.fu_full::FloatMult                   0      0.00%     97.94% # attempts to use FU when none available
system.cpu0.iq.fu_full::FloatMultAcc                0      0.00%     97.94% # attempts to use FU when none available
system.cpu0.iq.fu_full::FloatDiv                    0      0.00%     97.94% # attempts to use FU when none available
system.cpu0.iq.fu_full::FloatMisc                   0      0.00%     97.94% # attempts to use FU when none available
system.cpu0.iq.fu_full::FloatSqrt                   0      0.00%     97.94% # attempts to use FU when none available
system.cpu0.iq.fu_full::SimdAdd                     0      0.00%     97.94% # attempts to use FU when none available
system.cpu0.iq.fu_full::SimdAddAcc                  0      0.00%     97.94% # attempts to use FU when none available
system.cpu0.iq.fu_full::SimdAlu                     0      0.00%     97.94% # attempts to use FU when none available
system.cpu0.iq.fu_full::SimdCmp                     0      0.00%     97.94% # attempts to use FU when none available
system.cpu0.iq.fu_full::SimdCvt                     0      0.00%     97.94% # attempts to use FU when none available
system.cpu0.iq.fu_full::SimdMisc                    0      0.00%     97.94% # attempts to use FU when none available
system.cpu0.iq.fu_full::SimdMult                    0      0.00%     97.94% # attempts to use FU when none available
system.cpu0.iq.fu_full::SimdMultAcc                 0      0.00%     97.94% # attempts to use FU when none available
system.cpu0.iq.fu_full::SimdShift                   0      0.00%     97.94% # attempts to use FU when none available
system.cpu0.iq.fu_full::SimdShiftAcc                0      0.00%     97.94% # attempts to use FU when none available
system.cpu0.iq.fu_full::SimdSqrt                    0      0.00%     97.94% # attempts to use FU when none available
system.cpu0.iq.fu_full::SimdFloatAdd                0      0.00%     97.94% # attempts to use FU when none available
system.cpu0.iq.fu_full::SimdFloatAlu                0      0.00%     97.94% # attempts to use FU when none available
system.cpu0.iq.fu_full::SimdFloatCmp                0      0.00%     97.94% # attempts to use FU when none available
system.cpu0.iq.fu_full::SimdFloatCvt                0      0.00%     97.94% # attempts to use FU when none available
system.cpu0.iq.fu_full::SimdFloatDiv                0      0.00%     97.94% # attempts to use FU when none available
system.cpu0.iq.fu_full::SimdFloatMisc               0      0.00%     97.94% # attempts to use FU when none available
system.cpu0.iq.fu_full::SimdFloatMult               0      0.00%     97.94% # attempts to use FU when none available
system.cpu0.iq.fu_full::SimdFloatMultAcc            0      0.00%     97.94% # attempts to use FU when none available
system.cpu0.iq.fu_full::SimdFloatSqrt               0      0.00%     97.94% # attempts to use FU when none available
system.cpu0.iq.fu_full::MemRead                  4811      0.31%     98.25% # attempts to use FU when none available
system.cpu0.iq.fu_full::MemWrite                 2756      0.18%     98.43% # attempts to use FU when none available
system.cpu0.iq.fu_full::FloatMemRead            24066      1.55%     99.98% # attempts to use FU when none available
system.cpu0.iq.fu_full::FloatMemWrite             349      0.02%    100.00% # attempts to use FU when none available
system.cpu0.iq.fu_full::IprAccess                   0      0.00%    100.00% # attempts to use FU when none available
system.cpu0.iq.fu_full::InstPrefetch                0      0.00%    100.00% # attempts to use FU when none available
system.cpu0.iq.FU_type_0::No_OpClass          1861936      2.60%      2.60% # Type of FU issued
system.cpu0.iq.FU_type_0::IntAlu             54347393     75.98%     78.59% # Type of FU issued
system.cpu0.iq.FU_type_0::IntMult                3192      0.00%     78.59% # Type of FU issued
system.cpu0.iq.FU_type_0::IntDiv                75423      0.11%     78.70% # Type of FU issued
system.cpu0.iq.FU_type_0::FloatAdd            5021245      7.02%     85.72% # Type of FU issued
system.cpu0.iq.FU_type_0::FloatCmp                  0      0.00%     85.72% # Type of FU issued
system.cpu0.iq.FU_type_0::FloatCvt                  0      0.00%     85.72% # Type of FU issued
system.cpu0.iq.FU_type_0::FloatMult                 0      0.00%     85.72% # Type of FU issued
system.cpu0.iq.FU_type_0::FloatMultAcc              0      0.00%     85.72% # Type of FU issued
system.cpu0.iq.FU_type_0::FloatDiv                  0      0.00%     85.72% # Type of FU issued
system.cpu0.iq.FU_type_0::FloatMisc                 0      0.00%     85.72% # Type of FU issued
system.cpu0.iq.FU_type_0::FloatSqrt                 0      0.00%     85.72% # Type of FU issued
system.cpu0.iq.FU_type_0::SimdAdd                   0      0.00%     85.72% # Type of FU issued
system.cpu0.iq.FU_type_0::SimdAddAcc                0      0.00%     85.72% # Type of FU issued
system.cpu0.iq.FU_type_0::SimdAlu                   0      0.00%     85.72% # Type of FU issued
system.cpu0.iq.FU_type_0::SimdCmp                   0      0.00%     85.72% # Type of FU issued
system.cpu0.iq.FU_type_0::SimdCvt                   0      0.00%     85.72% # Type of FU issued
system.cpu0.iq.FU_type_0::SimdMisc                  0      0.00%     85.72% # Type of FU issued
system.cpu0.iq.FU_type_0::SimdMult                  0      0.00%     85.72% # Type of FU issued
system.cpu0.iq.FU_type_0::SimdMultAcc               0      0.00%     85.72% # Type of FU issued
system.cpu0.iq.FU_type_0::SimdShift                 0      0.00%     85.72% # Type of FU issued
system.cpu0.iq.FU_type_0::SimdShiftAcc              0      0.00%     85.72% # Type of FU issued
system.cpu0.iq.FU_type_0::SimdSqrt                  0      0.00%     85.72% # Type of FU issued
system.cpu0.iq.FU_type_0::SimdFloatAdd              0      0.00%     85.72% # Type of FU issued
system.cpu0.iq.FU_type_0::SimdFloatAlu              0      0.00%     85.72% # Type of FU issued
system.cpu0.iq.FU_type_0::SimdFloatCmp              0      0.00%     85.72% # Type of FU issued
system.cpu0.iq.FU_type_0::SimdFloatCvt              0      0.00%     85.72% # Type of FU issued
system.cpu0.iq.FU_type_0::SimdFloatDiv              0      0.00%     85.72% # Type of FU issued
system.cpu0.iq.FU_type_0::SimdFloatMisc             0      0.00%     85.72% # Type of FU issued
system.cpu0.iq.FU_type_0::SimdFloatMult             0      0.00%     85.72% # Type of FU issued
system.cpu0.iq.FU_type_0::SimdFloatMultAcc            0      0.00%     85.72% # Type of FU issued
system.cpu0.iq.FU_type_0::SimdFloatSqrt             0      0.00%     85.72% # Type of FU issued
system.cpu0.iq.FU_type_0::MemRead             5186395      7.25%     92.97% # Type of FU issued
system.cpu0.iq.FU_type_0::MemWrite            2578776      3.61%     96.57% # Type of FU issued
system.cpu0.iq.FU_type_0::FloatMemRead        2448889      3.42%    100.00% # Type of FU issued
system.cpu0.iq.FU_type_0::FloatMemWrite          1060      0.00%    100.00% # Type of FU issued
system.cpu0.iq.FU_type_0::IprAccess                 0      0.00%    100.00% # Type of FU issued
system.cpu0.iq.FU_type_0::InstPrefetch              0      0.00%    100.00% # Type of FU issued
system.cpu0.iq.FU_type_0::total              71524309                       # Type of FU issued
system.cpu0.iq.rate                          2.342395                       # Inst issue rate
system.cpu0.iq.fu_busy_cnt                    1550566                       # FU busy when requested
system.cpu0.iq.fu_busy_rate                  0.021679                       # FU busy rate (busy events/executed inst)
system.cpu0.iq.int_inst_queue_reads         160456320                       # Number of integer instruction queue reads
system.cpu0.iq.int_inst_queue_writes        120193887                       # Number of integer instruction queue writes
system.cpu0.iq.int_inst_queue_wakeup_accesses     60434844                       # Number of integer instruction queue wakeup accesses
system.cpu0.iq.fp_inst_queue_reads           15348481                       # Number of floating instruction queue reads
system.cpu0.iq.fp_inst_queue_writes          18253430                       # Number of floating instruction queue writes
system.cpu0.iq.fp_inst_queue_wakeup_accesses      6802900                       # Number of floating instruction queue wakeup accesses
system.cpu0.iq.vec_inst_queue_reads                 0                       # Number of vector instruction queue reads
system.cpu0.iq.vec_inst_queue_writes                0                       # Number of vector instruction queue writes
system.cpu0.iq.vec_inst_queue_wakeup_accesses            0                       # Number of vector instruction queue wakeup accesses
system.cpu0.iq.int_alu_accesses              63532845                       # Number of integer alu accesses
system.cpu0.iq.fp_alu_accesses                7680094                       # Number of floating point alu accesses
system.cpu0.iq.vec_alu_accesses                     0                       # Number of vector alu accesses
system.cpu0.iew.lsq.thread0.forwLoads          213374                       # Number of loads that had data forwarded from stores
system.cpu0.iew.lsq.thread0.invAddrLoads            0                       # Number of loads ignored due to an invalid address
system.cpu0.iew.lsq.thread0.squashedLoads      5796517                       # Number of loads squashed
system.cpu0.iew.lsq.thread0.ignoredResponses         4004                       # Number of memory responses ignored because the instruction is squashed
system.cpu0.iew.lsq.thread0.memOrderViolation          280                       # Number of memory ordering violations
system.cpu0.iew.lsq.thread0.squashedStores      1583405                       # Number of stores squashed
system.cpu0.iew.lsq.thread0.invAddrSwpfs            0                       # Number of software prefetches ignored due to an invalid address
system.cpu0.iew.lsq.thread0.blockedLoads            0                       # Number of blocked loads due to partial load-store forwarding
system.cpu0.iew.lsq.thread0.rescheduledLoads         3364                       # Number of loads that were rescheduled
system.cpu0.iew.lsq.thread0.cacheBlocked           35                       # Number of times an access to memory failed due to the cache being blocked
system.cpu0.iew.iewIdleCycles                       0                       # Number of cycles IEW is idle
system.cpu0.iew.iewSquashCycles               1383126                       # Number of cycles IEW is squashing
system.cpu0.iew.iewBlockCycles                6131340                       # Number of cycles IEW is blocking
system.cpu0.iew.iewUnblockCycles                 8157                       # Number of cycles IEW is unblocking
system.cpu0.iew.iewDispatchedInsts           90263121                       # Number of instructions dispatched to IQ
system.cpu0.iew.iewDispSquashedInsts            49653                       # Number of squashed instructions skipped by dispatch
system.cpu0.iew.iewDispLoadInsts              9560339                       # Number of dispatched load instructions
system.cpu0.iew.iewDispStoreInsts             3294411                       # Number of dispatched store instructions
system.cpu0.iew.iewDispNonSpecInsts             86124                       # Number of dispatched non-speculative instructions
system.cpu0.iew.iewIQFullEvents                  4217                       # Number of times the IQ has become full, causing a stall
system.cpu0.iew.iewLSQFullEvents                 2536                       # Number of times the LSQ has become full, causing a stall
system.cpu0.iew.memOrderViolationEvents           280                       # Number of memory order violations
system.cpu0.iew.predictedTakenIncorrect        416344                       # Number of branches that were predicted taken incorrectly
system.cpu0.iew.predictedNotTakenIncorrect      1319500                       # Number of branches that were predicted not taken incorrectly
system.cpu0.iew.branchMispredicts             1735844                       # Number of branch mispredicts detected at execute
system.cpu0.iew.iewExecutedInsts             68445816                       # Number of executed instructions
system.cpu0.iew.iewExecLoadInsts              6966055                       # Number of load instructions executed
system.cpu0.iew.iewExecSquashedInsts          3078487                       # Number of squashed instructions skipped in execute
system.cpu0.iew.exec_swp                            0                       # number of swp insts executed
system.cpu0.iew.exec_nop                            0                       # number of nop insts executed
system.cpu0.iew.exec_refs                     9338431                       # number of memory reference insts executed
system.cpu0.iew.exec_branches                 6294112                       # Number of branches executed
system.cpu0.iew.exec_stores                   2372376                       # Number of stores executed
system.cpu0.iew.exec_rate                    2.241576                       # Inst execution rate
system.cpu0.iew.wb_sent                      67806060                       # cumulative count of insts sent to commit
system.cpu0.iew.wb_count                     67237744                       # cumulative count of insts written-back
system.cpu0.iew.wb_producers                 49803033                       # num instructions producing a value
system.cpu0.iew.wb_consumers                 88618589                       # num instructions consuming a value
system.cpu0.iew.wb_rate                      2.202012                       # insts written-back per cycle
system.cpu0.iew.wb_fanout                    0.561993                       # average fanout of values written-back
system.cpu0.commit.commitSquashedInsts       48184134                       # The number of squashed insts skipped by commit
system.cpu0.commit.commitNonSpecStalls            109                       # The number of times commit has been forced to stall to communicate backwards
system.cpu0.commit.branchMispredicts          1382960                       # The number of times a branch was mispredicted
system.cpu0.commit.committed_per_cycle::samples     23219017                       # Number of insts commited each cycle
system.cpu0.commit.committed_per_cycle::mean     1.812270                       # Number of insts commited each cycle
system.cpu0.commit.committed_per_cycle::stdev     2.417410                       # Number of insts commited each cycle
system.cpu0.commit.committed_per_cycle::underflows            0      0.00%      0.00% # Number of insts commited each cycle
system.cpu0.commit.committed_per_cycle::0     10599370     45.65%     45.65% # Number of insts commited each cycle
system.cpu0.commit.committed_per_cycle::1      3064598     13.20%     58.85% # Number of insts commited each cycle
system.cpu0.commit.committed_per_cycle::2      3473090     14.96%     73.81% # Number of insts commited each cycle
system.cpu0.commit.committed_per_cycle::3      1883887      8.11%     81.92% # Number of insts commited each cycle
system.cpu0.commit.committed_per_cycle::4       964376      4.15%     86.07% # Number of insts commited each cycle
system.cpu0.commit.committed_per_cycle::5       774412      3.34%     89.41% # Number of insts commited each cycle
system.cpu0.commit.committed_per_cycle::6       329279      1.42%     90.83% # Number of insts commited each cycle
system.cpu0.commit.committed_per_cycle::7       328598      1.42%     92.24% # Number of insts commited each cycle
system.cpu0.commit.committed_per_cycle::8      1801407      7.76%    100.00% # Number of insts commited each cycle
system.cpu0.commit.committed_per_cycle::overflows            0      0.00%    100.00% # Number of insts commited each cycle
system.cpu0.commit.committed_per_cycle::min_value            0                       # Number of insts commited each cycle
system.cpu0.commit.committed_per_cycle::max_value            8                       # Number of insts commited each cycle
system.cpu0.commit.committed_per_cycle::total     23219017                       # Number of insts commited each cycle
system.cpu0.commit.committedInsts            19152026                       # Number of instructions committed
system.cpu0.commit.committedOps              42079119                       # Number of ops (including micro ops) committed
system.cpu0.commit.swp_count                        0                       # Number of s/w prefetches committed
system.cpu0.commit.refs                       5474825                       # Number of memory references committed
system.cpu0.commit.loads                      3763819                       # Number of loads committed
system.cpu0.commit.membars                         60                       # Number of memory barriers committed
system.cpu0.commit.branches                   4396587                       # Number of branches committed
system.cpu0.commit.vec_insts                        0                       # Number of committed Vector instructions.
system.cpu0.commit.fp_insts                   3148255                       # Number of committed floating point instructions.
system.cpu0.commit.int_insts                 39390777                       # Number of committed integer instructions.
system.cpu0.commit.function_calls              377433                       # Number of function calls committed.
system.cpu0.commit.op_class_0::No_OpClass       711607      1.69%      1.69% # Class of committed instruction
system.cpu0.commit.op_class_0::IntAlu        33467695     79.54%     81.23% # Class of committed instruction
system.cpu0.commit.op_class_0::IntMult           1877      0.00%     81.23% # Class of committed instruction
system.cpu0.commit.op_class_0::IntDiv           49374      0.12%     81.35% # Class of committed instruction
system.cpu0.commit.op_class_0::FloatAdd       2373741      5.64%     86.99% # Class of committed instruction
system.cpu0.commit.op_class_0::FloatCmp             0      0.00%     86.99% # Class of committed instruction
system.cpu0.commit.op_class_0::FloatCvt             0      0.00%     86.99% # Class of committed instruction
system.cpu0.commit.op_class_0::FloatMult            0      0.00%     86.99% # Class of committed instruction
system.cpu0.commit.op_class_0::FloatMultAcc            0      0.00%     86.99% # Class of committed instruction
system.cpu0.commit.op_class_0::FloatDiv             0      0.00%     86.99% # Class of committed instruction
system.cpu0.commit.op_class_0::FloatMisc            0      0.00%     86.99% # Class of committed instruction
system.cpu0.commit.op_class_0::FloatSqrt            0      0.00%     86.99% # Class of committed instruction
system.cpu0.commit.op_class_0::SimdAdd              0      0.00%     86.99% # Class of committed instruction
system.cpu0.commit.op_class_0::SimdAddAcc            0      0.00%     86.99% # Class of committed instruction
system.cpu0.commit.op_class_0::SimdAlu              0      0.00%     86.99% # Class of committed instruction
system.cpu0.commit.op_class_0::SimdCmp              0      0.00%     86.99% # Class of committed instruction
system.cpu0.commit.op_class_0::SimdCvt              0      0.00%     86.99% # Class of committed instruction
system.cpu0.commit.op_class_0::SimdMisc             0      0.00%     86.99% # Class of committed instruction
system.cpu0.commit.op_class_0::SimdMult             0      0.00%     86.99% # Class of committed instruction
system.cpu0.commit.op_class_0::SimdMultAcc            0      0.00%     86.99% # Class of committed instruction
system.cpu0.commit.op_class_0::SimdShift            0      0.00%     86.99% # Class of committed instruction
system.cpu0.commit.op_class_0::SimdShiftAcc            0      0.00%     86.99% # Class of committed instruction
system.cpu0.commit.op_class_0::SimdSqrt             0      0.00%     86.99% # Class of committed instruction
system.cpu0.commit.op_class_0::SimdFloatAdd            0      0.00%     86.99% # Class of committed instruction
system.cpu0.commit.op_class_0::SimdFloatAlu            0      0.00%     86.99% # Class of committed instruction
system.cpu0.commit.op_class_0::SimdFloatCmp            0      0.00%     86.99% # Class of committed instruction
system.cpu0.commit.op_class_0::SimdFloatCvt            0      0.00%     86.99% # Class of committed instruction
system.cpu0.commit.op_class_0::SimdFloatDiv            0      0.00%     86.99% # Class of committed instruction
system.cpu0.commit.op_class_0::SimdFloatMisc            0      0.00%     86.99% # Class of committed instruction
system.cpu0.commit.op_class_0::SimdFloatMult            0      0.00%     86.99% # Class of committed instruction
system.cpu0.commit.op_class_0::SimdFloatMultAcc            0      0.00%     86.99% # Class of committed instruction
system.cpu0.commit.op_class_0::SimdFloatSqrt            0      0.00%     86.99% # Class of committed instruction
system.cpu0.commit.op_class_0::MemRead        2999733      7.13%     94.12% # Class of committed instruction
system.cpu0.commit.op_class_0::MemWrite       1711006      4.07%     98.18% # Class of committed instruction
system.cpu0.commit.op_class_0::FloatMemRead       764086      1.82%    100.00% # Class of committed instruction
system.cpu0.commit.op_class_0::FloatMemWrite            0      0.00%    100.00% # Class of committed instruction
system.cpu0.commit.op_class_0::IprAccess            0      0.00%    100.00% # Class of committed instruction
system.cpu0.commit.op_class_0::InstPrefetch            0      0.00%    100.00% # Class of committed instruction
system.cpu0.commit.op_class_0::total         42079119                       # Class of committed instruction
system.cpu0.commit.bw_lim_events              1801407                       # number cycles where commit BW limit reached
system.cpu0.rob.rob_reads                   111680863                       # The number of ROB reads
system.cpu0.rob.rob_writes                  187973205                       # The number of ROB writes
system.cpu0.timesIdled                           2101                       # Number of times that the entire CPU went into an idle state and unscheduled itself
system.cpu0.idleCycles                           8124                       # Total number of cycles that the CPU has spent unscheduled due to idling
system.cpu0.committedInsts                   19152026                       # Number of Instructions Simulated
system.cpu0.committedOps                     42079119                       # Number of Ops (including micro ops) Simulated
system.cpu0.cpi                              1.594332                       # CPI: Cycles Per Instruction
system.cpu0.cpi_total                        1.594332                       # CPI: Total CPI of All Threads
system.cpu0.ipc                              0.627222                       # IPC: Instructions Per Cycle
system.cpu0.ipc_total                        0.627222                       # IPC: Total IPC of All Threads
system.cpu0.int_regfile_reads                87562150                       # number of integer regfile reads
system.cpu0.int_regfile_writes               51650643                       # number of integer regfile writes
system.cpu0.fp_regfile_reads                 10747577                       # number of floating regfile reads
system.cpu0.fp_regfile_writes                 6416826                       # number of floating regfile writes
system.cpu0.cc_regfile_reads                 36519586                       # number of cc regfile reads
system.cpu0.cc_regfile_writes                18094849                       # number of cc regfile writes
system.cpu0.misc_regfile_reads               22198489                       # number of misc regfile reads
system.cpu0.dcache.tags.pwrStateResidencyTicks::UNDEFINED  15267344125                       # Cumulative time (in ticks) in various power states
system.cpu0.dcache.tags.replacements            23145                       # number of replacements
system.cpu0.dcache.tags.tagsinuse                 512                       # Cycle average of tags in use
system.cpu0.dcache.tags.total_refs            1912554                       # Total number of references to valid blocks.
system.cpu0.dcache.tags.sampled_refs            23145                       # Sample count of references to valid blocks.
system.cpu0.dcache.tags.avg_refs            82.633571                       # Average number of references to valid blocks.
system.cpu0.dcache.tags.warmup_cycle                0                       # Cycle when the warmup percentage was hit.
system.cpu0.dcache.tags.occ_blocks::cpu0.data          512                       # Average occupied blocks per requestor
system.cpu0.dcache.tags.occ_percent::cpu0.data            1                       # Average percentage of cache occupancy
system.cpu0.dcache.tags.occ_percent::total            1                       # Average percentage of cache occupancy
system.cpu0.dcache.tags.occ_task_id_blocks::1024          512                       # Occupied blocks per task id
system.cpu0.dcache.tags.age_task_id_blocks_1024::0           15                       # Occupied blocks per task id
system.cpu0.dcache.tags.age_task_id_blocks_1024::1          132                       # Occupied blocks per task id
system.cpu0.dcache.tags.age_task_id_blocks_1024::2          309                       # Occupied blocks per task id
system.cpu0.dcache.tags.age_task_id_blocks_1024::3            5                       # Occupied blocks per task id
system.cpu0.dcache.tags.age_task_id_blocks_1024::4           51                       # Occupied blocks per task id
system.cpu0.dcache.tags.occ_task_id_percent::1024            1                       # Percentage of cache occupancy per task id
system.cpu0.dcache.tags.tag_accesses         33688025                       # Number of tag accesses
system.cpu0.dcache.tags.data_accesses        33688025                       # Number of data accesses
system.cpu0.dcache.pwrStateResidencyTicks::UNDEFINED  15267344125                       # Cumulative time (in ticks) in various power states
system.cpu0.dcache.ReadReq_hits::cpu0.data      6671258                       # number of ReadReq hits
system.cpu0.dcache.ReadReq_hits::total        6671258                       # number of ReadReq hits
system.cpu0.dcache.WriteReq_hits::cpu0.data      1700693                       # number of WriteReq hits
system.cpu0.dcache.WriteReq_hits::total       1700693                       # number of WriteReq hits
system.cpu0.dcache.demand_hits::cpu0.data      8371951                       # number of demand (read+write) hits
system.cpu0.dcache.demand_hits::total         8371951                       # number of demand (read+write) hits
system.cpu0.dcache.overall_hits::cpu0.data      8371951                       # number of overall hits
system.cpu0.dcache.overall_hits::total        8371951                       # number of overall hits
system.cpu0.dcache.ReadReq_misses::cpu0.data        33749                       # number of ReadReq misses
system.cpu0.dcache.ReadReq_misses::total        33749                       # number of ReadReq misses
system.cpu0.dcache.WriteReq_misses::cpu0.data        10520                       # number of WriteReq misses
system.cpu0.dcache.WriteReq_misses::total        10520                       # number of WriteReq misses
system.cpu0.dcache.demand_misses::cpu0.data        44269                       # number of demand (read+write) misses
system.cpu0.dcache.demand_misses::total         44269                       # number of demand (read+write) misses
system.cpu0.dcache.overall_misses::cpu0.data        44269                       # number of overall misses
system.cpu0.dcache.overall_misses::total        44269                       # number of overall misses
system.cpu0.dcache.ReadReq_miss_latency::cpu0.data   1691494000                       # number of ReadReq miss cycles
system.cpu0.dcache.ReadReq_miss_latency::total   1691494000                       # number of ReadReq miss cycles
system.cpu0.dcache.WriteReq_miss_latency::cpu0.data    969702000                       # number of WriteReq miss cycles
system.cpu0.dcache.WriteReq_miss_latency::total    969702000                       # number of WriteReq miss cycles
system.cpu0.dcache.demand_miss_latency::cpu0.data   2661196000                       # number of demand (read+write) miss cycles
system.cpu0.dcache.demand_miss_latency::total   2661196000                       # number of demand (read+write) miss cycles
system.cpu0.dcache.overall_miss_latency::cpu0.data   2661196000                       # number of overall miss cycles
system.cpu0.dcache.overall_miss_latency::total   2661196000                       # number of overall miss cycles
system.cpu0.dcache.ReadReq_accesses::cpu0.data      6705007                       # number of ReadReq accesses(hits+misses)
system.cpu0.dcache.ReadReq_accesses::total      6705007                       # number of ReadReq accesses(hits+misses)
system.cpu0.dcache.WriteReq_accesses::cpu0.data      1711213                       # number of WriteReq accesses(hits+misses)
system.cpu0.dcache.WriteReq_accesses::total      1711213                       # number of WriteReq accesses(hits+misses)
system.cpu0.dcache.demand_accesses::cpu0.data      8416220                       # number of demand (read+write) accesses
system.cpu0.dcache.demand_accesses::total      8416220                       # number of demand (read+write) accesses
[...]
system.l2.ReadExReq_avg_miss_latency::total 93397.136908                       # average ReadExReq miss latency
system.l2.ReadCleanReq_avg_miss_latency::cpu0.inst 99166.666667                       # average ReadCleanReq miss latency
system.l2.ReadCleanReq_avg_miss_latency::total 99166.666667                       # average ReadCleanReq miss latency
system.l2.ReadSharedReq_avg_miss_latency::cpu0.data 104595.485253                       # average ReadSharedReq miss latency
system.l2.ReadSharedReq_avg_miss_latency::total 104595.485253                       # average ReadSharedReq miss latency
system.l2.demand_avg_miss_latency::cpu0.inst 99166.666667                       # average overall miss latency
system.l2.demand_avg_miss_latency::cpu0.data 97733.156820                       # average overall miss latency
system.l2.demand_avg_miss_latency::total 97733.431141                       # average overall miss latency
system.l2.overall_avg_miss_latency::cpu0.inst 99166.666667                       # average overall miss latency
system.l2.overall_avg_miss_latency::cpu0.data 97733.156820                       # average overall miss latency
system.l2.overall_avg_miss_latency::total 97733.431141                       # average overall miss latency
system.l2.blocked_cycles::no_mshrs                  0                       # number of cycles access was blocked
system.l2.blocked_cycles::no_targets                0                       # number of cycles access was blocked
system.l2.blocked::no_mshrs                         0                       # number of cycles access was blocked
system.l2.blocked::no_targets                       0                       # number of cycles access was blocked
system.l2.avg_blocked_cycles::no_mshrs            nan                       # average number of cycles each access was blocked
system.l2.avg_blocked_cycles::no_targets          nan                       # average number of cycles each access was blocked
system.l2.writebacks::writebacks                15136                       # number of writebacks
system.l2.writebacks::total                     15136                       # number of writebacks
system.l2.CleanEvict_mshr_misses::writebacks            3                       # number of CleanEvict MSHR misses
system.l2.CleanEvict_mshr_misses::total             3                       # number of CleanEvict MSHR misses
system.l2.ReadExReq_mshr_misses::cpu0.data         9605                       # number of ReadExReq MSHR misses
system.l2.ReadExReq_mshr_misses::total           9605                       # number of ReadExReq MSHR misses
system.l2.ReadCleanReq_mshr_misses::cpu0.inst            3                       # number of ReadCleanReq MSHR misses
system.l2.ReadCleanReq_mshr_misses::total            3                       # number of ReadCleanReq MSHR misses
system.l2.ReadSharedReq_mshr_misses::cpu0.data         6069                       # number of ReadSharedReq MSHR misses
system.l2.ReadSharedReq_mshr_misses::total         6069                       # number of ReadSharedReq MSHR misses
system.l2.demand_mshr_misses::cpu0.inst             3                       # number of demand (read+write) MSHR misses
system.l2.demand_mshr_misses::cpu0.data         15674                       # number of demand (read+write) MSHR misses
system.l2.demand_mshr_misses::total             15677                       # number of demand (read+write) MSHR misses
system.l2.overall_mshr_misses::cpu0.inst            3                       # number of overall MSHR misses
system.l2.overall_mshr_misses::cpu0.data        15674                       # number of overall MSHR misses
system.l2.overall_mshr_misses::total            15677                       # number of overall MSHR misses
system.l2.ReadExReq_mshr_miss_latency::cpu0.data    801029500                       # number of ReadExReq MSHR miss cycles
system.l2.ReadExReq_mshr_miss_latency::total    801029500                       # number of ReadExReq MSHR miss cycles
system.l2.ReadCleanReq_mshr_miss_latency::cpu0.inst       267500                       # number of ReadCleanReq MSHR miss cycles
system.l2.ReadCleanReq_mshr_miss_latency::total       267500                       # number of ReadCleanReq MSHR miss cycles
system.l2.ReadSharedReq_mshr_miss_latency::cpu0.data    574100000                       # number of ReadSharedReq MSHR miss cycles
system.l2.ReadSharedReq_mshr_miss_latency::total    574100000                       # number of ReadSharedReq MSHR miss cycles
system.l2.demand_mshr_miss_latency::cpu0.inst       267500                       # number of demand (read+write) MSHR miss cycles
system.l2.demand_mshr_miss_latency::cpu0.data   1375129500                       # number of demand (read+write) MSHR miss cycles
system.l2.demand_mshr_miss_latency::total   1375397000                       # number of demand (read+write) MSHR miss cycles
system.l2.overall_mshr_miss_latency::cpu0.inst       267500                       # number of overall MSHR miss cycles
system.l2.overall_mshr_miss_latency::cpu0.data   1375129500                       # number of overall MSHR miss cycles
system.l2.overall_mshr_miss_latency::total   1375397000                       # number of overall MSHR miss cycles
system.l2.CleanEvict_mshr_miss_rate::writebacks          inf                       # mshr miss rate for CleanEvict accesses
system.l2.CleanEvict_mshr_miss_rate::total          inf                       # mshr miss rate for CleanEvict accesses
system.l2.ReadExReq_mshr_miss_rate::cpu0.data     0.968832                       # mshr miss rate for ReadExReq accesses
system.l2.ReadExReq_mshr_miss_rate::total     0.968832                       # mshr miss rate for ReadExReq accesses
system.l2.ReadCleanReq_mshr_miss_rate::cpu0.inst     0.000440                       # mshr miss rate for ReadCleanReq accesses
system.l2.ReadCleanReq_mshr_miss_rate::total     0.000440                       # mshr miss rate for ReadCleanReq accesses
system.l2.ReadSharedReq_mshr_miss_rate::cpu0.data     0.458695                       # mshr miss rate for ReadSharedReq accesses
system.l2.ReadSharedReq_mshr_miss_rate::total     0.458695                       # mshr miss rate for ReadSharedReq accesses
system.l2.demand_mshr_miss_rate::cpu0.inst     0.000440                       # mshr miss rate for demand accesses
system.l2.demand_mshr_miss_rate::cpu0.data     0.677209                       # mshr miss rate for demand accesses
system.l2.demand_mshr_miss_rate::total       0.523142                       # mshr miss rate for demand accesses
system.l2.overall_mshr_miss_rate::cpu0.inst     0.000440                       # mshr miss rate for overall accesses
system.l2.overall_mshr_miss_rate::cpu0.data     0.677209                       # mshr miss rate for overall accesses
system.l2.overall_mshr_miss_rate::total      0.523142                       # mshr miss rate for overall accesses
system.l2.ReadExReq_avg_mshr_miss_latency::cpu0.data 83397.136908                       # average ReadExReq mshr miss latency
system.l2.ReadExReq_avg_mshr_miss_latency::total 83397.136908                       # average ReadExReq mshr miss latency
system.l2.ReadCleanReq_avg_mshr_miss_latency::cpu0.inst 89166.666667                       # average ReadCleanReq mshr miss latency
system.l2.ReadCleanReq_avg_mshr_miss_latency::total 89166.666667                       # average ReadCleanReq mshr miss latency
system.l2.ReadSharedReq_avg_mshr_miss_latency::cpu0.data 94595.485253                       # average ReadSharedReq mshr miss latency
system.l2.ReadSharedReq_avg_mshr_miss_latency::total 94595.485253                       # average ReadSharedReq mshr miss latency
system.l2.demand_avg_mshr_miss_latency::cpu0.inst 89166.666667                       # average overall mshr miss latency
system.l2.demand_avg_mshr_miss_latency::cpu0.data 87733.156820                       # average overall mshr miss latency
system.l2.demand_avg_mshr_miss_latency::total 87733.431141                       # average overall mshr miss latency
system.l2.overall_avg_mshr_miss_latency::cpu0.inst 89166.666667                       # average overall mshr miss latency
system.l2.overall_avg_mshr_miss_latency::cpu0.data 87733.156820                       # average overall mshr miss latency
system.l2.overall_avg_mshr_miss_latency::total 87733.431141                       # average overall mshr miss latency
system.membus.snoop_filter.tot_requests         31352                       # Total number of requests made to the snoop filter.
system.membus.snoop_filter.hit_single_requests        15675                       # Number of requests hitting in the snoop filter with a single holder of the requested data.
system.membus.snoop_filter.hit_multi_requests            0                       # Number of requests hitting in the snoop filter with multiple (>1) holders of the requested data.
system.membus.snoop_filter.tot_snoops               0                       # Total number of snoops made to the snoop filter.
system.membus.snoop_filter.hit_single_snoops            0                       # Number of snoops hitting in the snoop filter with a single holder of the requested data.
system.membus.snoop_filter.hit_multi_snoops            0                       # Number of snoops hitting in the snoop filter with multiple (>1) holders of the requested data.
system.membus.pwrStateResidencyTicks::UNDEFINED  15267344125                       # Cumulative time (in ticks) in various power states
system.membus.trans_dist::ReadResp               6072                       # Transaction distribution
system.membus.trans_dist::WritebackDirty        15136                       # Transaction distribution
system.membus.trans_dist::CleanEvict              539                       # Transaction distribution
system.membus.trans_dist::ReadExReq              9605                       # Transaction distribution
system.membus.trans_dist::ReadExResp             9605                       # Transaction distribution
system.membus.trans_dist::ReadSharedReq          6072                       # Transaction distribution
system.membus.pkt_count_system.l2.mem_side::system.mem_ctrls.port        47029                       # Packet count per connected master and slave (bytes)
system.membus.pkt_count_system.l2.mem_side::total        47029                       # Packet count per connected master and slave (bytes)
system.membus.pkt_count::total                  47029                       # Packet count per connected master and slave (bytes)
system.membus.pkt_size_system.l2.mem_side::system.mem_ctrls.port      1972032                       # Cumulative packet size per connected master and slave (bytes)
system.membus.pkt_size_system.l2.mem_side::total      1972032                       # Cumulative packet size per connected master and slave (bytes)
system.membus.pkt_size::total                 1972032                       # Cumulative packet size per connected master and slave (bytes)
system.membus.snoops                                0                       # Total snoops (count)
system.membus.snoopTraffic                          0                       # Total snoop traffic (bytes)
system.membus.snoop_fanout::samples             15677                       # Request fanout histogram
system.membus.snoop_fanout::mean                    0                       # Request fanout histogram
system.membus.snoop_fanout::stdev                   0                       # Request fanout histogram
system.membus.snoop_fanout::underflows              0      0.00%      0.00% # Request fanout histogram
system.membus.snoop_fanout::0                   15677    100.00%    100.00% # Request fanout histogram
system.membus.snoop_fanout::1                       0      0.00%    100.00% # Request fanout histogram
system.membus.snoop_fanout::overflows               0      0.00%    100.00% # Request fanout histogram
system.membus.snoop_fanout::min_value               0                       # Request fanout histogram
system.membus.snoop_fanout::max_value               0                       # Request fanout histogram
system.membus.snoop_fanout::total               15677                       # Request fanout histogram
system.membus.reqLayer12.occupancy           95737000                       # Layer occupancy (ticks)
system.membus.reqLayer12.utilization              0.6                       # Layer utilization (%)
system.membus.respLayer1.occupancy           85036250                       # Layer occupancy (ticks)
system.membus.respLayer1.utilization              0.6                       # Layer utilization (%)
system.tol2bus.snoop_filter.tot_requests        60002                       # Total number of requests made to the snoop filter.
system.tol2bus.snoop_filter.hit_single_requests        29983                       # Number of requests hitting in the snoop filter with a single holder of the requested data.
system.tol2bus.snoop_filter.hit_multi_requests           68                       # Number of requests hitting in the snoop filter with multiple (>1) holders of the requested data.
system.tol2bus.snoop_filter.tot_snoops              6                       # Total number of snoops made to the snoop filter.
system.tol2bus.snoop_filter.hit_single_snoops            6                       # Number of snoops hitting in the snoop filter with a single holder of the requested data.
system.tol2bus.snoop_filter.hit_multi_snoops            0                       # Number of snoops hitting in the snoop filter with multiple (>1) holders of the requested data.
system.tol2bus.pwrStateResidencyTicks::UNDEFINED  15267344125                       # Cumulative time (in ticks) in various power states
system.tol2bus.trans_dist::ReadResp             20085                       # Transaction distribution
system.tol2bus.trans_dist::WritebackDirty        34045                       # Transaction distribution
system.tol2bus.trans_dist::WritebackClean         6833                       # Transaction distribution
system.tol2bus.trans_dist::CleanEvict            4778                       # Transaction distribution
system.tol2bus.trans_dist::UpgradeReq              25                       # Transaction distribution
system.tol2bus.trans_dist::UpgradeResp             25                       # Transaction distribution
system.tol2bus.trans_dist::ReadExReq             9914                       # Transaction distribution
system.tol2bus.trans_dist::ReadExResp            9914                       # Transaction distribution
system.tol2bus.trans_dist::ReadCleanReq          6854                       # Transaction distribution
system.tol2bus.trans_dist::ReadSharedReq        13231                       # Transaction distribution
system.tol2bus.pkt_count_system.cpu0.icache.mem_side::system.l2.cpu_side        20509                       # Packet count per connected master and slave (bytes)
system.tol2bus.pkt_count_system.cpu0.dcache.mem_side::system.l2.cpu_side        69485                       # Packet count per connected master and slave (bytes)
system.tol2bus.pkt_count::total                 89994                       # Packet count per connected master and slave (bytes)
system.tol2bus.pkt_size_system.cpu0.icache.mem_side::system.l2.cpu_side       873920                       # Cumulative packet size per connected master and slave (bytes)
system.tol2bus.pkt_size_system.cpu0.dcache.mem_side::system.l2.cpu_side      2691456                       # Cumulative packet size per connected master and slave (bytes)
system.tol2bus.pkt_size::total                3565376                       # Cumulative packet size per connected master and slave (bytes)
system.tol2bus.snoops                           15710                       # Total snoops (count)
system.tol2bus.snoopTraffic                    970752                       # Total snoop traffic (bytes)
system.tol2bus.snoop_fanout::samples            45702                       # Request fanout histogram
system.tol2bus.snoop_fanout::mean            0.001619                       # Request fanout histogram
system.tol2bus.snoop_fanout::stdev           0.040207                       # Request fanout histogram
system.tol2bus.snoop_fanout::underflows             0      0.00%      0.00% # Request fanout histogram
system.tol2bus.snoop_fanout::0                  45628     99.84%     99.84% # Request fanout histogram
system.tol2bus.snoop_fanout::1                     74      0.16%    100.00% # Request fanout histogram
system.tol2bus.snoop_fanout::2                      0      0.00%    100.00% # Request fanout histogram
system.tol2bus.snoop_fanout::3                      0      0.00%    100.00% # Request fanout histogram
system.tol2bus.snoop_fanout::4                      0      0.00%    100.00% # Request fanout histogram
system.tol2bus.snoop_fanout::5                      0      0.00%    100.00% # Request fanout histogram
system.tol2bus.snoop_fanout::6                      0      0.00%    100.00% # Request fanout histogram
system.tol2bus.snoop_fanout::7                      0      0.00%    100.00% # Request fanout histogram
system.tol2bus.snoop_fanout::8                      0      0.00%    100.00% # Request fanout histogram
system.tol2bus.snoop_fanout::9                      0      0.00%    100.00% # Request fanout histogram
system.tol2bus.snoop_fanout::10                     0      0.00%    100.00% # Request fanout histogram
system.tol2bus.snoop_fanout::11                     0      0.00%    100.00% # Request fanout histogram
system.tol2bus.snoop_fanout::12                     0      0.00%    100.00% # Request fanout histogram
system.tol2bus.snoop_fanout::13                     0      0.00%    100.00% # Request fanout histogram
system.tol2bus.snoop_fanout::14                     0      0.00%    100.00% # Request fanout histogram
system.tol2bus.snoop_fanout::15                     0      0.00%    100.00% # Request fanout histogram
system.tol2bus.snoop_fanout::16                     0      0.00%    100.00% # Request fanout histogram
system.tol2bus.snoop_fanout::17                     0      0.00%    100.00% # Request fanout histogram
system.tol2bus.snoop_fanout::18                     0      0.00%    100.00% # Request fanout histogram
system.tol2bus.snoop_fanout::19                     0      0.00%    100.00% # Request fanout histogram
system.tol2bus.snoop_fanout::20                     0      0.00%    100.00% # Request fanout histogram
system.tol2bus.snoop_fanout::21                     0      0.00%    100.00% # Request fanout histogram
system.tol2bus.snoop_fanout::22                     0      0.00%    100.00% # Request fanout histogram
system.tol2bus.snoop_fanout::23                     0      0.00%    100.00% # Request fanout histogram
system.tol2bus.snoop_fanout::24                     0      0.00%    100.00% # Request fanout histogram
system.tol2bus.snoop_fanout::overflows              0      0.00%    100.00% # Request fanout histogram
system.tol2bus.snoop_fanout::min_value              0                       # Request fanout histogram
system.tol2bus.snoop_fanout::max_value              1                       # Request fanout histogram
system.tol2bus.snoop_fanout::total              45702                       # Request fanout histogram
system.tol2bus.reqLayer0.occupancy           55743000                       # Layer occupancy (ticks)
system.tol2bus.reqLayer0.utilization              0.4                       # Layer utilization (%)
system.tol2bus.respLayer0.occupancy          10281000                       # Layer occupancy (ticks)
system.tol2bus.respLayer0.utilization             0.1                       # Layer utilization (%)
system.tol2bus.respLayer1.occupancy          34730998                       # Layer occupancy (ticks)
system.tol2bus.respLayer1.utilization             0.2                       # Layer utilization (%)

---------- End Simulation Statistics   ----------
