
---------- Begin Simulation Statistics ----------
sim_seconds                                  0.015267                       # Number of seconds simulated
sim_ticks                                 15267344125                       # Number of ticks simulated
final_tick                               5160362314250                       # Number of ticks from beginning of simulation (restored from checkpoints and never reset)
sim_freq                                 1000000000000                       # Frequency of simulated ticks
host_inst_rate                               68017312                       # Simulator instruction rate (inst/s)
host_op_rate                                126254384                       # Simulator op (including micro ops) rate (op/s)
host_tick_rate                              181982461                       # Simulator tick rate (ticks/s)
host_mem_usage                                1248976                       # Number of bytes of host memory used
host_seconds                                    83.89                       # Real time elapsed on the host
sim_insts                                  5706282419                       # Number of instructions simulated
sim_ops                                   10592058029                       # Number of ops (including micro ops) simulated
system.voltage_domain.voltage                       1                       # Voltage in Volts
system.clk_domain.clock                          1000                       # Clock period in ticks
system.mem_ctrls.pwrStateResidencyTicks::UNDEFINED  15267344125                       # Cumulative time (in ticks) in various power states
system.mem_ctrls.bytes_read::cpu0.inst            192                       # Number of bytes read from this memory
system.mem_ctrls.bytes_read::cpu0.data       12522304                       # Number of bytes read from this memory
system.mem_ctrls.bytes_read::total           12522496                       # Number of bytes read from this memory
system.mem_ctrls.bytes_inst_read::cpu0.inst          192                       # Number of instructions bytes read from this memory
system.mem_ctrls.bytes_inst_read::total           192                       # Number of instructions bytes read from this memory
system.mem_ctrls.bytes_written::writebacks        29696                       # Number of bytes written to this memory
system.mem_ctrls.bytes_written::total           29696                       # Number of bytes written to this memory
system.mem_ctrls.num_reads::cpu0.inst               3                       # Number of read requests responded to by this memory
system.mem_ctrls.num_reads::cpu0.data          195661                       # Number of read requests responded to by this memory
system.mem_ctrls.num_reads::total              195664                       # Number of read requests responded to by this memory
system.mem_ctrls.num_writes::writebacks           464                       # Number of write requests responded to by this memory
system.mem_ctrls.num_writes::total                464                       # Number of write requests responded to by this memory
system.mem_ctrls.bw_read::cpu0.inst             12576                       # Total read bandwidth from this memory (bytes/s)
system.mem_ctrls.bw_read::cpu0.data         820201857                       # Total read bandwidth from this memory (bytes/s)
system.mem_ctrls.bw_read::total             820214433                       # Total read bandwidth from this memory (bytes/s)
system.mem_ctrls.bw_inst_read::cpu0.inst        12576                       # Instruction read bandwidth from this memory (bytes/s)
system.mem_ctrls.bw_inst_read::total            12576                       # Instruction read bandwidth from this memory (bytes/s)
system.mem_ctrls.bw_write::writebacks         1945067                       # Write bandwidth from this memory (bytes/s)
system.mem_ctrls.bw_write::total              1945067                       # Write bandwidth from this memory (bytes/s)
system.mem_ctrls.bw_total::writebacks         1945067                       # Total bandwidth to/from this memory (bytes/s)
system.mem_ctrls.bw_total::cpu0.inst            12576                       # Total bandwidth to/from this memory (bytes/s)
system.mem_ctrls.bw_total::cpu0.data        820201857                       # Total bandwidth to/from this memory (bytes/s)
system.mem_ctrls.bw_total::total            822159499                       # Total bandwidth to/from this memory (bytes/s)
system.mem_ctrls.readReqs                      195664                       # Number of read requests accepted
system.mem_ctrls.writeReqs                        464                       # Number of write requests accepted
system.mem_ctrls.readBursts                    195664                       # Number of DRAM read bursts, including those serviced by the write queue
system.mem_ctrls.writeBursts                      464                       # Number of DRAM write bursts, including those merged in the write queue
system.mem_ctrls.bytesReadDRAM               12518400                       # Total number of bytes read from DRAM
system.mem_ctrls.bytesReadWrQ                    4160                       # Total number of bytes read from write queue
system.mem_ctrls.bytesWritten                   29696                       # Total number of bytes written to DRAM
system.mem_ctrls.bytesReadSys                12522496                       # Total read bytes from the system interface side
system.mem_ctrls.bytesWrittenSys                29696                       # Total written bytes from the system interface side
system.mem_ctrls.servicedByWrQ                     65                       # Number of DRAM read bursts serviced by the write queue
system.mem_ctrls.mergedWrBursts                     0                       # Number of DRAM write bursts merged with an existing one
system.mem_ctrls.neitherReadNorWriteReqs            0                       # Number of requests that are neither read nor write
system.mem_ctrls.perBankRdBursts::0             12109                       # Per bank write bursts
system.mem_ctrls.perBankRdBursts::1             12489                       # Per bank write bursts
system.mem_ctrls.perBankRdBursts::2             12298                       # Per bank write bursts
system.mem_ctrls.perBankRdBursts::3             12179                       # Per bank write bursts
system.mem_ctrls.perBankRdBursts::4             12029                       # Per bank write bursts
system.mem_ctrls.perBankRdBursts::5             12154                       # Per bank write bursts
system.mem_ctrls.perBankRdBursts::6             12087                       # Per bank write bursts
system.mem_ctrls.perBankRdBursts::7             12117                       # Per bank write bursts
system.mem_ctrls.perBankRdBursts::8             11714                       # Per bank write bursts
system.mem_ctrls.perBankRdBursts::9             12035                       # Per bank write bursts
system.mem_ctrls.perBankRdBursts::10            11799                       # Per bank write bursts
system.mem_ctrls.perBankRdBursts::11            12242                       # Per bank write bursts
system.mem_ctrls.perBankRdBursts::12            12792                       # Per bank write bursts
system.mem_ctrls.perBankRdBursts::13            12526                       # Per bank write bursts
system.mem_ctrls.perBankRdBursts::14            12591                       # Per bank write bursts
system.mem_ctrls.perBankRdBursts::15            12439                       # Per bank write bursts
system.mem_ctrls.perBankWrBursts::0                 0                       # Per bank write bursts
system.mem_ctrls.perBankWrBursts::1                 4                       # Per bank write bursts
system.mem_ctrls.perBankWrBursts::2               150                       # Per bank write bursts
system.mem_ctrls.perBankWrBursts::3               128                       # Per bank write bursts
system.mem_ctrls.perBankWrBursts::4                26                       # Per bank write bursts
system.mem_ctrls.perBankWrBursts::5                 0                       # Per bank write bursts
system.mem_ctrls.perBankWrBursts::6                 0                       # Per bank write bursts
system.mem_ctrls.perBankWrBursts::7                 0                       # Per bank write bursts
system.mem_ctrls.perBankWrBursts::8                 1                       # Per bank write bursts
system.mem_ctrls.perBankWrBursts::9                 0                       # Per bank write bursts
system.mem_ctrls.perBankWrBursts::10                0                       # Per bank write bursts
system.mem_ctrls.perBankWrBursts::11                0                       # Per bank write bursts
system.mem_ctrls.perBankWrBursts::12              143                       # Per bank write bursts
system.mem_ctrls.perBankWrBursts::13               12                       # Per bank write bursts
system.mem_ctrls.perBankWrBursts::14                0                       # Per bank write bursts
system.mem_ctrls.perBankWrBursts::15                0                       # Per bank write bursts
system.mem_ctrls.numRdRetry                         0                       # Number of times read queue was full causing retry
system.mem_ctrls.numWrRetry                         0                       # Number of times write queue was full causing retry
system.mem_ctrls.totGap                   15267382000                       # Total gap between requests
system.mem_ctrls.readPktSize::0                     0                       # Read request sizes (log2)
system.mem_ctrls.readPktSize::1                     0                       # Read request sizes (log2)
system.mem_ctrls.readPktSize::2                     0                       # Read request sizes (log2)
system.mem_ctrls.readPktSize::3                     0                       # Read request sizes (log2)
system.mem_ctrls.readPktSize::4                     0                       # Read request sizes (log2)
system.mem_ctrls.readPktSize::5                     0                       # Read request sizes (log2)
system.mem_ctrls.readPktSize::6                195664                       # Read request sizes (log2)
system.mem_ctrls.writePktSize::0                    0                       # Write request sizes (log2)
system.mem_ctrls.writePktSize::1                    0                       # Write request sizes (log2)
system.mem_ctrls.writePktSize::2                    0                       # Write request sizes (log2)
system.mem_ctrls.writePktSize::3                    0                       # Write request sizes (log2)
system.mem_ctrls.writePktSize::4                    0                       # Write request sizes (log2)
system.mem_ctrls.writePktSize::5                    0                       # Write request sizes (log2)
system.mem_ctrls.writePktSize::6                  464                       # Write request sizes (log2)
system.mem_ctrls.rdQLenPdf::0                  148082                       # What read queue length does an incoming req see
system.mem_ctrls.rdQLenPdf::1                   44528                       # What read queue length does an incoming req see
system.mem_ctrls.rdQLenPdf::2                    2964                       # What read queue length does an incoming req see
system.mem_ctrls.rdQLenPdf::3                      24                       # What read queue length does an incoming req see
system.mem_ctrls.rdQLenPdf::4                       1                       # What read queue length does an incoming req see
system.mem_ctrls.rdQLenPdf::5                       0                       # What read queue length does an incoming req see
system.mem_ctrls.rdQLenPdf::6                       0                       # What read queue length does an incoming req see
system.mem_ctrls.rdQLenPdf::7                       0                       # What read queue length does an incoming req see
system.mem_ctrls.rdQLenPdf::8                       0                       # What read queue length does an incoming req see
system.mem_ctrls.rdQLenPdf::9                       0                       # What read queue length does an incoming req see
system.mem_ctrls.rdQLenPdf::10                      0                       # What read queue length does an incoming req see
system.mem_ctrls.rdQLenPdf::11                      0                       # What read queue length does an incoming req see
system.mem_ctrls.rdQLenPdf::12                      0                       # What read queue length does an incoming req see
system.mem_ctrls.rdQLenPdf::13                      0                       # What read queue length does an incoming req see
system.mem_ctrls.rdQLenPdf::14                      0                       # What read queue length does an incoming req see
system.mem_ctrls.rdQLenPdf::15                      0                       # What read queue length does an incoming req see
system.mem_ctrls.rdQLenPdf::16                      0                       # What read queue length does an incoming req see
system.mem_ctrls.rdQLenPdf::17                      0                       # What read queue length does an incoming req see
system.mem_ctrls.rdQLenPdf::18                      0                       # What read queue length does an incoming req see
system.mem_ctrls.rdQLenPdf::19                      0                       # What read queue length does an incoming req see
system.mem_ctrls.rdQLenPdf::20                      0                       # What read queue length does an incoming req see
system.mem_ctrls.rdQLenPdf::21                      0                       # What read queue length does an incoming req see
system.mem_ctrls.rdQLenPdf::22                      0                       # What read queue length does an incoming req see
system.mem_ctrls.rdQLenPdf::23                      0                       # What read queue length does an incoming req see
system.mem_ctrls.rdQLenPdf::24                      0                       # What read queue length does an incoming req see
system.mem_ctrls.rdQLenPdf::25                      0                       # What read queue length does an incoming req see
system.mem_ctrls.rdQLenPdf::26                      0                       # What read queue length does an incoming req see
system.mem_ctrls.rdQLenPdf::27                      0                       # What read queue length does an incoming req see
system.mem_ctrls.rdQLenPdf::28                      0                       # What read queue length does an incoming req see
system.mem_ctrls.rdQLenPdf::29                      0                       # What read queue length does an incoming req see
system.mem_ctrls.rdQLenPdf::30                      0                       # What read queue length does an incoming req see
system.mem_ctrls.rdQLenPdf::31                      0                       # What read queue length does an incoming req see
system.mem_ctrls.wrQLenPdf::0                       0                       # What write queue length does an incoming req see
system.mem_ctrls.wrQLenPdf::1                       0                       # What write queue length does an incoming req see
system.mem_ctrls.wrQLenPdf::2                       0                       # What write queue length does an incoming req see
system.mem_ctrls.wrQLenPdf::3                       0                       # What write queue length does an incoming req see
system.mem_ctrls.wrQLenPdf::4                       0                       # What write queue length does an incoming req see
system.mem_ctrls.wrQLenPdf::5                       0                       # What write queue length does an incoming req see
system.mem_ctrls.wrQLenPdf::6                       0                       # What write queue length does an incoming req see
system.mem_ctrls.wrQLenPdf::7                       0                       # What write queue length does an incoming req see
system.mem_ctrls.wrQLenPdf::8                       0                       # What write queue length does an incoming req see
system.mem_ctrls.wrQLenPdf::9                       0                       # What write queue length does an incoming req see
system.mem_ctrls.wrQLenPdf::10                      0                       # What write queue length does an incoming req see
system.mem_ctrls.wrQLenPdf::11                      0                       # What write queue length does an incoming req see
system.mem_ctrls.wrQLenPdf::12                      0                       # What write queue length does an incoming req see
system.mem_ctrls.wrQLenPdf::13                      0                       # What write queue length does an incoming req see
system.mem_ctrls.wrQLenPdf::14                      0                       # What write queue length does an incoming req see
system.mem_ctrls.wrQLenPdf::15                      0                       # What write queue length does an incoming req see
system.mem_ctrls.wrQLenPdf::16                      0                       # What write queue length does an incoming req see
system.mem_ctrls.wrQLenPdf::17                     29                       # What write queue length does an incoming req see
system.mem_ctrls.wrQLenPdf::18                     29                       # What write queue length does an incoming req see
system.mem_ctrls.wrQLenPdf::19                     29                       # What write queue length does an incoming req see
system.mem_ctrls.wrQLenPdf::20                     29                       # What write queue length does an incoming req see
system.mem_ctrls.wrQLenPdf::21                     29                       # What write queue length does an incoming req see
system.mem_ctrls.wrQLenPdf::22                     29                       # What write queue length does an incoming req see
system.mem_ctrls.wrQLenPdf::23                     29                       # What write queue length does an incoming req see
system.mem_ctrls.wrQLenPdf::24                     29                       # What write queue length does an incoming req see
system.mem_ctrls.wrQLenPdf::25                     29                       # What write queue length does an incoming req see
system.mem_ctrls.wrQLenPdf::26                     29                       # What write queue length does an incoming req see
system.mem_ctrls.wrQLenPdf::27                     29                       # What write queue length does an incoming req see
system.mem_ctrls.wrQLenPdf::28                     29                       # What write queue length does an incoming req see
system.mem_ctrls.wrQLenPdf::29                     29                       # What write queue length does an incoming req see
system.mem_ctrls.wrQLenPdf::30                     29                       # What write queue length does an incoming req see
system.mem_ctrls.wrQLenPdf::31                     29                       # What write queue length does an incoming req see
system.mem_ctrls.wrQLenPdf::32                     29                       # What write queue length does an incoming req see
system.mem_ctrls.wrQLenPdf::33                      0                       # What write queue length does an incoming req see
system.mem_ctrls.wrQLenPdf::34                      0                       # What write queue length does an incoming req see
system.mem_ctrls.wrQLenPdf::35                      0                       # What write queue length does an incoming req see
system.mem_ctrls.wrQLenPdf::36                      0                       # What write queue length does an incoming req see
system.mem_ctrls.wrQLenPdf::37                      0                       # What write queue length does an incoming req see
system.mem_ctrls.wrQLenPdf::38                      0                       # What write queue length does an incoming req see
system.mem_ctrls.wrQLenPdf::39                      0                       # What write queue length does an incoming req see
system.mem_ctrls.wrQLenPdf::40                      0                       # What write queue length does an incoming req see
system.mem_ctrls.wrQLenPdf::41                      0                       # What write queue length does an incoming req see
system.mem_ctrls.wrQLenPdf::42                      0                       # What write queue length does an incoming req see
system.mem_ctrls.wrQLenPdf::43                      0                       # What write queue length does an incoming req see
system.mem_ctrls.wrQLenPdf::44                      0                       # What write queue length does an incoming req see
system.mem_ctrls.wrQLenPdf::45                      0                       # What write queue length does an incoming req see
system.mem_ctrls.wrQLenPdf::46                      0                       # What write queue length does an incoming req see
system.mem_ctrls.wrQLenPdf::47                      0                       # What write queue length does an incoming req see
system.mem_ctrls.wrQLenPdf::48                      0                       # What write queue length does an incoming req see
system.mem_ctrls.wrQLenPdf::49                      0                       # What write queue length does an incoming req see
system.mem_ctrls.wrQLenPdf::50                      0                       # What write queue length does an incoming req see
system.mem_ctrls.wrQLenPdf::51                      0                       # What write queue length does an incoming req see
system.mem_ctrls.wrQLenPdf::52                      0                       # What write queue length does an incoming req see
system.mem_ctrls.wrQLenPdf::53                      0                       # What write queue length does an incoming req see
system.mem_ctrls.wrQLenPdf::54                      0                       # What write queue length does an incoming req see
system.mem_ctrls.wrQLenPdf::55                      0                       # What write queue length does an incoming req see
system.mem_ctrls.wrQLenPdf::56                      0                       # What write queue length does an incoming req see
system.mem_ctrls.wrQLenPdf::57                      0                       # What write queue length does an incoming req see
system.mem_ctrls.wrQLenPdf::58                      0                       # What write queue length does an incoming req see
system.mem_ctrls.wrQLenPdf::59                      0                       # What write queue length does an incoming req see
system.mem_ctrls.wrQLenPdf::60                      0                       # What write queue length does an incoming req see
system.mem_ctrls.wrQLenPdf::61                      0                       # What write queue length does an incoming req see
system.mem_ctrls.wrQLenPdf::62                      0                       # What write queue length does an incoming req see
system.mem_ctrls.wrQLenPdf::63                      0                       # What write queue length does an incoming req see
system.mem_ctrls.bytesPerActivate::samples        97511                       # Bytes accessed per row activation
system.mem_ctrls.bytesPerActivate::mean    128.673401                       # Bytes accessed per row activation
system.mem_ctrls.bytesPerActivate::gmean   110.595782                       # Bytes accessed per row activation
system.mem_ctrls.bytesPerActivate::stdev    76.976137                       # Bytes accessed per row activation
system.mem_ctrls.bytesPerActivate::0-127        41891     42.96%     42.96% # Bytes accessed per row activation
system.mem_ctrls.bytesPerActivate::128-255        44551     45.69%     88.65% # Bytes accessed per row activation
system.mem_ctrls.bytesPerActivate::256-383         9595      9.84%     98.49% # Bytes accessed per row activation
system.mem_ctrls.bytesPerActivate::384-511         1318      1.35%     99.84% # Bytes accessed per row activation
system.mem_ctrls.bytesPerActivate::512-639          115      0.12%     99.96% # Bytes accessed per row activation
system.mem_ctrls.bytesPerActivate::640-767           22      0.02%     99.98% # Bytes accessed per row activation
system.mem_ctrls.bytesPerActivate::768-895            5      0.01%     99.99% # Bytes accessed per row activation
system.mem_ctrls.bytesPerActivate::896-1023            4      0.00%     99.99% # Bytes accessed per row activation
system.mem_ctrls.bytesPerActivate::1024-1151           10      0.01%    100.00% # Bytes accessed per row activation
system.mem_ctrls.bytesPerActivate::total        97511                       # Bytes accessed per row activation
system.mem_ctrls.rdPerTurnAround::samples           29                       # Reads before turning the bus around for writes
system.mem_ctrls.rdPerTurnAround::mean    6734.517241                       # Reads before turning the bus around for writes
system.mem_ctrls.rdPerTurnAround::gmean   6510.975614                       # Reads before turning the bus around for writes
system.mem_ctrls.rdPerTurnAround::stdev   1774.160156                       # Reads before turning the bus around for writes
system.mem_ctrls.rdPerTurnAround::4096-4607            4     13.79%     13.79% # Reads before turning the bus around for writes
system.mem_ctrls.rdPerTurnAround::4608-5119            2      6.90%     20.69% # Reads before turning the bus around for writes
system.mem_ctrls.rdPerTurnAround::5120-5631            2      6.90%     27.59% # Reads before turning the bus around for writes
system.mem_ctrls.rdPerTurnAround::5632-6143            2      6.90%     34.48% # Reads before turning the bus around for writes
system.mem_ctrls.rdPerTurnAround::6144-6655            4     13.79%     48.28% # Reads before turning the bus around for writes
system.mem_ctrls.rdPerTurnAround::6656-7167            5     17.24%     65.52% # Reads before turning the bus around for writes
system.mem_ctrls.rdPerTurnAround::7168-7679            3     10.34%     75.86% # Reads before turning the bus around for writes
system.mem_ctrls.rdPerTurnAround::7680-8191            1      3.45%     79.31% # Reads before turning the bus around for writes
system.mem_ctrls.rdPerTurnAround::8192-8703            1      3.45%     82.76% # Reads before turning the bus around for writes
system.mem_ctrls.rdPerTurnAround::8704-9215            1      3.45%     86.21% # Reads before turning the bus around for writes
system.mem_ctrls.rdPerTurnAround::9216-9727            2      6.90%     93.10% # Reads before turning the bus around for writes
system.mem_ctrls.rdPerTurnAround::9728-10239            1      3.45%     96.55% # Reads before turning the bus around for writes
system.mem_ctrls.rdPerTurnAround::10240-10751            1      3.45%    100.00% # Reads before turning the bus around for writes
system.mem_ctrls.rdPerTurnAround::total            29                       # Reads before turning the bus around for writes
system.mem_ctrls.wrPerTurnAround::samples           29                       # Writes before turning the bus around for reads
system.mem_ctrls.wrPerTurnAround::mean             16                       # Writes before turning the bus around for reads
system.mem_ctrls.wrPerTurnAround::gmean     16.000000                       # Writes before turning the bus around for reads
system.mem_ctrls.wrPerTurnAround::16               29    100.00%    100.00% # Writes before turning the bus around for reads
system.mem_ctrls.wrPerTurnAround::total            29                       # Writes before turning the bus around for reads
system.mem_ctrls.totQLat                   4696927000                       # Total ticks spent queuing
system.mem_ctrls.totMemAccLat              8364427000                       # Total ticks spent from burst creation until serviced by the DRAM
system.mem_ctrls.totBusLat                  978000000                       # Total ticks spent in databus transfers
system.mem_ctrls.avgQLat                     24013.04                       # Average queueing delay per DRAM burst
system.mem_ctrls.avgBusLat                    5000.03                       # Average bus latency per DRAM burst
system.mem_ctrls.avgMemAccLat                42763.14                       # Average memory access latency per DRAM burst
system.mem_ctrls.avgRdBW                       819.95                       # Average DRAM read bandwidth in MiByte/s
system.mem_ctrls.avgWrBW                         1.95                       # Average achieved write bandwidth in MiByte/s
system.mem_ctrls.avgRdBWSys                    820.21                       # Average system read bandwidth in MiByte/s
system.mem_ctrls.avgWrBWSys                      1.95                       # Average system write bandwidth in MiByte/s
system.mem_ctrls.peakBW                      12800.00                       # Theoretical peak bandwidth in MiByte/s
system.mem_ctrls.busUtil                         6.42                       # Data bus utilization in percentage
system.mem_ctrls.busUtilRead                     6.41                       # Data bus utilization in percentage for reads
system.mem_ctrls.busUtilWrite                    0.02                       # Data bus utilization in percentage for writes
system.mem_ctrls.avgRdQLen                       1.32                       # Average read queue length when enqueuing
system.mem_ctrls.avgWrQLen                      25.55                       # Average write queue length when enqueuing
system.mem_ctrls.readRowHits                    98144                       # Number of row buffer hits during reads
system.mem_ctrls.writeRowHits                     402                       # Number of row buffer hits during writes
system.mem_ctrls.readRowHitRate                 50.18                       # Row buffer hit rate for reads
system.mem_ctrls.writeRowHitRate                86.64                       # Row buffer hit rate for writes
system.mem_ctrls.avgGap                      77843.97                       # Average gap between requests
system.mem_ctrls.pageHitRate                    50.26                       # Row buffer hit rate, read and write combined
system.mem_ctrls_0.actEnergy                346868340                       # Energy for activate commands per rank (pJ)
system.mem_ctrls_0.preEnergy                184364895                       # Energy for precharge commands per rank (pJ)
system.mem_ctrls_0.readEnergy               695878680                       # Energy for read commands per rank (pJ)
system.mem_ctrls_0.writeEnergy                1607760                       # Energy for write commands per rank (pJ)
system.mem_ctrls_0.refreshEnergy         1205309040.000000                       # Energy for refresh commands per rank (pJ)
system.mem_ctrls_0.actBackEnergy           1630921050                       # Energy for active background per rank (pJ)
system.mem_ctrls_0.preBackEnergy             24904800                       # Energy for precharge background per rank (pJ)
system.mem_ctrls_0.actPowerDownEnergy      5167206180                       # Energy for active power-down per rank (pJ)
system.mem_ctrls_0.prePowerDownEnergy       113016480                       # Energy for precharge power-down per rank (pJ)
system.mem_ctrls_0.selfRefreshEnergy                0                       # Energy for self refresh per rank (pJ)
system.mem_ctrls_0.totalEnergy             9370077225                       # Total energy per rank (pJ)
system.mem_ctrls_0.averagePower            613.733283                       # Core power per rank (mW)
system.mem_ctrls_0.totalIdleTime          11626362625                       # Total Idle time Per DRAM Rank
system.mem_ctrls_0.memoryStateTime::IDLE     10566000                       # Time in different power states
system.mem_ctrls_0.memoryStateTime::REF     509860000                       # Time in different power states
system.mem_ctrls_0.memoryStateTime::SREF            0                       # Time in different power states
system.mem_ctrls_0.memoryStateTime::PRE_PDN    294308500                       # Time in different power states
system.mem_ctrls_0.memoryStateTime::ACT    3120238500                       # Time in different power states
system.mem_ctrls_0.memoryStateTime::ACT_PDN  11332371125                       # Time in different power states
system.mem_ctrls_1.actEnergy                349410180                       # Energy for activate commands per rank (pJ)
system.mem_ctrls_1.preEnergy                185689350                       # Energy for precharge commands per rank (pJ)
system.mem_ctrls_1.readEnergy               700705320                       # Energy for read commands per rank (pJ)
system.mem_ctrls_1.writeEnergy                 814320                       # Energy for write commands per rank (pJ)
system.mem_ctrls_1.refreshEnergy         1204694400.000000                       # Energy for refresh commands per rank (pJ)
system.mem_ctrls_1.actBackEnergy           1640315220                       # Energy for active background per rank (pJ)
system.mem_ctrls_1.preBackEnergy             24525600                       # Energy for precharge background per rank (pJ)
system.mem_ctrls_1.actPowerDownEnergy      5141347560                       # Energy for active power-down per rank (pJ)
system.mem_ctrls_1.prePowerDownEnergy       127213440                       # Energy for precharge power-down per rank (pJ)
system.mem_ctrls_1.selfRefreshEnergy                0                       # Energy for self refresh per rank (pJ)
system.mem_ctrls_1.totalEnergy             9374715390                       # Total energy per rank (pJ)
system.mem_ctrls_1.averagePower            614.037079                       # Core power per rank (mW)
system.mem_ctrls_1.totalIdleTime          11606830750                       # Total Idle time Per DRAM Rank
system.mem_ctrls_1.memoryStateTime::IDLE      9538500                       # Time in different power states
system.mem_ctrls_1.memoryStateTime::REF     509737125                       # Time in different power states
system.mem_ctrls_1.memoryStateTime::SREF            0                       # Time in different power states
system.mem_ctrls_1.memoryStateTime::PRE_PDN    331276500                       # Time in different power states
system.mem_ctrls_1.memoryStateTime::ACT    3141237750                       # Time in different power states
system.mem_ctrls_1.memoryStateTime::ACT_PDN  11275554250                       # Time in different power states
system.pwrStateResidencyTicks::UNDEFINED  15267344125                       # Cumulative time (in ticks) in various power states
system.cpu0.branchPred.lookups                1498078                       # Number of BP lookups
system.cpu0.branchPred.condPredicted          1498078                       # Number of conditional branches predicted
system.cpu0.branchPred.condIncorrect            66224                       # Number of conditional branches incorrect
system.cpu0.branchPred.BTBLookups             1215729                       # Number of BTB lookups
system.cpu0.branchPred.BTBHits                      0                       # Number of BTB hits
system.cpu0.branchPred.BTBCorrect                   0                       # Number of correct BTB predictions (this stat may not work properly.
system.cpu0.branchPred.BTBHitPct             0.000000                       # BTB Hit Percentage
system.cpu0.branchPred.usedRAS                  49576                       # Number of times the RAS was used to get a target.
system.cpu0.branchPred.RASInCorrect              8391                       # Number of incorrect RAS predictions.
system.cpu0.branchPred.indirectLookups        1215729                       # Number of indirect predictor lookups.
system.cpu0.branchPred.indirectHits            626194                       # Number of indirect target hits.
system.cpu0.branchPred.indirectMisses          589535                       # Number of indirect misses.
system.cpu0.branchPredindirectMispredicted        23532                       # Number of mispredicted indirect branches.
system.cpu_voltage_domain.voltage                   1                       # Voltage in Volts
system.cpu_clk_domain.clock                       500                       # Clock period in ticks
system.cpu0.dtb.walker.pwrStateResidencyTicks::UNDEFINED  15267344125                       # Cumulative time (in ticks) in various power states
system.cpu0.dtb.rdAccesses                     731438                       # TLB accesses on read requests
system.cpu0.dtb.wrAccesses                      60885                       # TLB accesses on write requests
system.cpu0.dtb.rdMisses                       145510                       # TLB misses on read requests
system.cpu0.dtb.wrMisses                         1051                       # TLB misses on write requests
system.cpu0.apic_clk_domain.clock                8000                       # Clock period in ticks
system.cpu0.interrupts.pwrStateResidencyTicks::UNDEFINED  15267344125                       # Cumulative time (in ticks) in various power states
system.cpu0.itb.walker.pwrStateResidencyTicks::UNDEFINED  15267344125                       # Cumulative time (in ticks) in various power states
system.cpu0.itb.rdAccesses                          0                       # TLB accesses on read requests
system.cpu0.itb.wrAccesses                    1209951                       # TLB accesses on write requests
system.cpu0.itb.rdMisses                            0                       # TLB misses on read requests
system.cpu0.itb.wrMisses                         5026                       # TLB misses on write requests
system.cpu0.workload.numSyscalls                    1                       # Number of system calls
system.cpu0.pwrStateResidencyTicks::ON    15267344125                       # Cumulative time (in ticks) in various power states
system.cpu0.numCycles                        30534688                       # number of cpu cycles simulated
system.cpu0.numWorkItemsStarted                     0                       # number of work items this cpu started
system.cpu0.numWorkItemsCompleted                   0                       # number of work items this cpu completed
system.cpu0.fetch.icacheStallCycles           1240975                       # Number of cycles fetch is stalled on an Icache miss
system.cpu0.fetch.Insts                       4475660                       # Number of instructions fetch has processed
system.cpu0.fetch.Branches                    1498078                       # Number of branches that fetch encountered
system.cpu0.fetch.predictedBranches            675770                       # Number of branches that fetch has predicted taken
system.cpu0.fetch.Cycles                     29139293                       # Number of cycles fetch has run and was not squashing or blocked
system.cpu0.fetch.SquashCycles                 135908                       # Number of cycles fetch has spent squashing
system.cpu0.fetch.TlbCycles                      1700                       # Number of cycles fetch has spent waiting for tlb
system.cpu0.fetch.MiscStallCycles                1421                       # Number of cycles fetch has spent waiting on interrupts, or bad addresses, or out of MSHRs
system.cpu0.fetch.PendingTrapStallCycles        40309                       # Number of stall cycles due to pending traps
system.cpu0.fetch.CacheLines                  1204925                       # Number of cache lines fetched
system.cpu0.fetch.IcacheSquashes                 7773                       # Number of outstanding Icache misses that were squashed
system.cpu0.fetch.ItlbSquashes                      4                       # Number of outstanding ITLB misses that were squashed
system.cpu0.fetch.rateDist::samples          30491652                       # Number of instructions fetched each cycle (Total)
system.cpu0.fetch.rateDist::mean             0.295511                       # Number of instructions fetched each cycle (Total)
system.cpu0.fetch.rateDist::stdev            1.372814                       # Number of instructions fetched each cycle (Total)
system.cpu0.fetch.rateDist::underflows              0      0.00%      0.00% # Number of instructions fetched each cycle (Total)
system.cpu0.fetch.rateDist::0                28768866     94.35%     94.35% # Number of instructions fetched each cycle (Total)
system.cpu0.fetch.rateDist::1                   28005      0.09%     94.44% # Number of instructions fetched each cycle (Total)
system.cpu0.fetch.rateDist::2                  585771      1.92%     96.36% # Number of instructions fetched each cycle (Total)
system.cpu0.fetch.rateDist::3                   29583      0.10%     96.46% # Number of instructions fetched each cycle (Total)
system.cpu0.fetch.rateDist::4                  126287      0.41%     96.87% # Number of instructions fetched each cycle (Total)
system.cpu0.fetch.rateDist::5                   69360      0.23%     97.10% # Number of instructions fetched each cycle (Total)
system.cpu0.fetch.rateDist::6                   86098      0.28%     97.38% # Number of instructions fetched each cycle (Total)
system.cpu0.fetch.rateDist::7                   27682      0.09%     97.47% # Number of instructions fetched each cycle (Total)
system.cpu0.fetch.rateDist::8                  770000      2.53%    100.00% # Number of instructions fetched each cycle (Total)
system.cpu0.fetch.rateDist::overflows               0      0.00%    100.00% # Number of instructions fetched each cycle (Total)
system.cpu0.fetch.rateDist::min_value               0                       # Number of instructions fetched each cycle (Total)
system.cpu0.fetch.rateDist::max_value               8                       # Number of instructions fetched each cycle (Total)
system.cpu0.fetch.rateDist::total            30491652                       # Number of instructions fetched each cycle (Total)
system.cpu0.fetch.branchRate                 0.049062                       # Number of branch fetches per cycle
system.cpu0.fetch.rate                       0.146576                       # Number of inst fetches per cycle
system.cpu0.decode.IdleCycles                  620645                       # Number of cycles decode is idle
system.cpu0.decode.BlockedCycles             28676457                       # Number of cycles decode is blocked
system.cpu0.decode.RunCycles                   823871                       # Number of cycles decode is running
system.cpu0.decode.UnblockCycles               302725                       # Number of cycles decode is unblocking
system.cpu0.decode.SquashCycles                 67954                       # Number of cycles decode is squashing
system.cpu0.decode.DecodedInsts               7405029                       # Number of instructions handled by decode
system.cpu0.rename.SquashCycles                 67954                       # Number of cycles rename is squashing
system.cpu0.rename.IdleCycles                  715660                       # Number of cycles rename is idle
system.cpu0.rename.BlockCycles               27399553                       # Number of cycles rename is blocking
system.cpu0.rename.serializeStallCycles         12843                       # count of cycles rename stalled for serializing inst
system.cpu0.rename.RunCycles                   956599                       # Number of cycles rename is running
system.cpu0.rename.UnblockCycles              1339043                       # Number of cycles rename is unblocking
system.cpu0.rename.RenamedInsts               7089166                       # Number of instructions processed by rename
system.cpu0.rename.ROBFullEvents                79722                       # Number of times rename has blocked due to ROB full
system.cpu0.rename.IQFullEvents               1003698                       # Number of times rename has blocked due to IQ full
system.cpu0.rename.LQFullEvents                286618                       # Number of times rename has blocked due to LQ full
system.cpu0.rename.SQFullEvents                  1390                       # Number of times rename has blocked due to SQ full
system.cpu0.rename.RenamedOperands            8426686                       # Number of destination operands rename has renamed
system.cpu0.rename.RenameLookups             19550262                       # Number of register rename lookups that rename has made
system.cpu0.rename.int_rename_lookups         9398124                       # Number of integer rename lookups
system.cpu0.rename.fp_rename_lookups            36910                       # Number of floating rename lookups
system.cpu0.rename.CommittedMaps              2983054                       # Number of HB maps that are committed
system.cpu0.rename.UndoneMaps                 5443627                       # Number of HB maps that are undone due to squashing
system.cpu0.rename.serializingInsts               320                       # count of serializing insts renamed
system.cpu0.rename.tempSerializingInsts           365                       # count of temporary serializing insts renamed
system.cpu0.rename.skidInsts                  1919639                       # count of insts added to the skid buffer
system.cpu0.memDep0.insertedLoads             1250650                       # Number of loads inserted to the mem dependence unit.
system.cpu0.memDep0.insertedStores              90337                       # Number of stores inserted to the mem dependence unit.
system.cpu0.memDep0.conflictingLoads             5389                       # Number of conflicting loads.
system.cpu0.memDep0.conflictingStores            5550                       # Number of conflicting stores.
system.cpu0.iq.iqInstsAdded                   6698692                       # Number of instructions added to the IQ (excludes non-spec)
system.cpu0.iq.iqNonSpecInstsAdded               5409                       # Number of non-speculative instructions added to the IQ
system.cpu0.iq.iqInstsIssued                  4863868                       # Number of instructions issued
system.cpu0.iq.iqSquashedInstsIssued             6185                       # Number of squashed instructions issued
system.cpu0.iq.iqSquashedInstsExamined        4216709                       # Number of squashed instructions iterated over during squash; mainly for profiling
system.cpu0.iq.iqSquashedOperandsExamined      8433116                       # Number of squashed operands that are examined and possibly removed from graph
system.cpu0.iq.iqSquashedNonSpecRemoved          5408                       # Number of squashed non-spec instructions that were removed
system.cpu0.iq.issued_per_cycle::samples     30491652                       # Number of insts issued each cycle
system.cpu0.iq.issued_per_cycle::mean        0.159515                       # Number of insts issued each cycle
system.cpu0.iq.issued_per_cycle::stdev       0.732083                       # Number of insts issued each cycle
system.cpu0.iq.issued_per_cycle::underflows            0      0.00%      0.00% # Number of insts issued each cycle
system.cpu0.iq.issued_per_cycle::0           28497874     93.46%     93.46% # Number of insts issued each cycle
system.cpu0.iq.issued_per_cycle::1             799268      2.62%     96.08% # Number of insts issued each cycle
system.cpu0.iq.issued_per_cycle::2             417377      1.37%     97.45% # Number of insts issued each cycle
system.cpu0.iq.issued_per_cycle::3             283823      0.93%     98.38% # Number of insts issued each cycle
system.cpu0.iq.issued_per_cycle::4             278900      0.91%     99.30% # Number of insts issued each cycle
system.cpu0.iq.issued_per_cycle::5              91102      0.30%     99.60% # Number of insts issued each cycle
system.cpu0.iq.issued_per_cycle::6              75422      0.25%     99.84% # Number of insts issued each cycle
system.cpu0.iq.issued_per_cycle::7              28353      0.09%     99.94% # Number of insts issued each cycle
system.cpu0.iq.issued_per_cycle::8              19533      0.06%    100.00% # Number of insts issued each cycle
system.cpu0.iq.issued_per_cycle::overflows            0      0.00%    100.00% # Number of insts issued each cycle
system.cpu0.iq.issued_per_cycle::min_value            0                       # Number of insts issued each cycle
system.cpu0.iq.issued_per_cycle::max_value            8                       # Number of insts issued each cycle
system.cpu0.iq.issued_per_cycle::total       30491652                       # Number of insts issued each cycle
system.cpu0.iq.fu_full::No_OpClass                  0      0.00%      0.00% # attempts to use FU when none available
system.cpu0.iq.fu_full::IntAlu                  11672     70.31%     70.31% # attempts to use FU when none available
system.cpu0.iq.fu_full::IntMult                     0      0.00%     70.31% # attempts to use FU when none available
system.cpu0.iq.fu_full::IntDiv                      0      0.00%     70.31% # attempts to use FU when none available
system.cpu0.iq.fu_full::FloatAdd                 1217      7.33%     77.64% # attempts to use FU when none available
system.cpu0.iq.fu_full::FloatCmp                    0      0.00%     77.64% # attempts to use FU when none available
system.cpu0.iq.fu_full::FloatCvt                    0      0.00%     77.64% # attempts to use FU when none available
system.cpu0.iq.fu_full::FloatMult                   0      0.00%     77.64% # attempts to use FU when none available
system.cpu0.iq.fu_full::FloatMultAcc                0      0.00%     77.64% # attempts to use FU when none available
system.cpu0.iq.fu_full::FloatDiv                    0      0.00%     77.64% # attempts to use FU when none available
system.cpu0.iq.fu_full::FloatMisc                   0      0.00%     77.64% # attempts to use FU when none available
system.cpu0.iq.fu_full::FloatSqrt                   0      0.00%     77.64% # attempts to use FU when none available
system.cpu0.iq.fu_full::SimdAdd                     0      0.00%     77.64% # attempts to use FU when none available
system.cpu0.iq.fu_full::SimdAddAcc                  0      0.00%     77.64% # attempts to use FU when none available
system.cpu0.iq.fu_full::SimdAlu                     0      0.00%     77.64% # attempts to use FU when none available
system.cpu0.iq.fu_full::SimdCmp                     0      0.00%     77.64% # attempts to use FU when none available
system.cpu0.iq.fu_full::SimdCvt                     0      0.00%     77.64% # attempts to use FU when none available
system.cpu0.iq.fu_full::SimdMisc                    0      0.00%     77.64% # attempts to use FU when none available
system.cpu0.iq.fu_full::SimdMult                    0      0.00%     77.64% # attempts to use FU when none available
system.cpu0.iq.fu_full::SimdMultAcc                 0      0.00%     77.64% # attempts to use FU when none available
system.cpu0.iq.fu_full::SimdShift                   0      0.00%     77.64% # attempts to use FU when none available
system.cpu0.iq.fu_full::SimdShiftAcc                0      0.00%     77.64% # attempts to use FU when none available
system.cpu0.iq.fu_full::SimdSqrt                    0      0.00%     77.64% # attempts to use FU when none available
system.cpu0.iq.fu_full::SimdFloatAdd                0      0.00%     77.64% # attempts to use FU when none available
system.cpu0.iq.fu_full::SimdFloatAlu                0      0.00%     77.64% # attempts to use FU when none available
system.cpu0.iq.fu_full::SimdFloatCmp                0      0.00%     77.64% # attempts to use FU when none available
system.cpu0.iq.fu_full::SimdFloatCvt                0      0.00%     77.64% # attempts to use FU when none available
system.cpu0.iq.fu_full::SimdFloatDiv                0      0.00%     77.64% # attempts to use FU when none available
system.cpu0.iq.fu_full::SimdFloatMisc               0      0.00%     77.64% # attempts to use FU when none available
system.cpu0.iq.fu_full::SimdFloatMult               0      0.00%     77.64% # attempts to use FU when none available
system.cpu0.iq.fu_full::SimdFloatMultAcc            0      0.00%     77.64% # attempts to use FU when none available
system.cpu0.iq.fu_full::SimdFloatSqrt               0      0.00%     77.64% # attempts to use FU when none available
system.cpu0.iq.fu_full::MemRead                  3355     20.21%     97.85% # attempts to use FU when none available
system.cpu0.iq.fu_full::MemWrite                  307      1.85%     99.70% # attempts to use FU when none available
system.cpu0.iq.fu_full::FloatMemRead               26      0.16%     99.86% # attempts to use FU when none available
system.cpu0.iq.fu_full::FloatMemWrite              24      0.14%    100.00% # attempts to use FU when none available
system.cpu0.iq.fu_full::IprAccess                   0      0.00%    100.00% # attempts to use FU when none available
system.cpu0.iq.fu_full::InstPrefetch                0      0.00%    100.00% # attempts to use FU when none available
system.cpu0.iq.FU_type_0::No_OpClass            19416      0.40%      0.40% # Type of FU issued
system.cpu0.iq.FU_type_0::IntAlu              3987595     81.98%     82.38% # Type of FU issued
system.cpu0.iq.FU_type_0::IntMult                1424      0.03%     82.41% # Type of FU issued
system.cpu0.iq.FU_type_0::IntDiv                10357      0.21%     82.63% # Type of FU issued
system.cpu0.iq.FU_type_0::FloatAdd              15045      0.31%     82.93% # Type of FU issued
system.cpu0.iq.FU_type_0::FloatCmp                  0      0.00%     82.93% # Type of FU issued
system.cpu0.iq.FU_type_0::FloatCvt                  0      0.00%     82.93% # Type of FU issued
system.cpu0.iq.FU_type_0::FloatMult                 0      0.00%     82.93% # Type of FU issued
system.cpu0.iq.FU_type_0::FloatMultAcc              0      0.00%     82.93% # Type of FU issued
system.cpu0.iq.FU_type_0::FloatDiv                  0      0.00%     82.93% # Type of FU issued
system.cpu0.iq.FU_type_0::FloatMisc                 0      0.00%     82.93% # Type of FU issued
system.cpu0.iq.FU_type_0::FloatSqrt                 0      0.00%     82.93% # Type of FU issued
system.cpu0.iq.FU_type_0::SimdAdd                   0      0.00%     82.93% # Type of FU issued
system.cpu0.iq.FU_type_0::SimdAddAcc                0      0.00%     82.93% # Type of FU issued
system.cpu0.iq.FU_type_0::SimdAlu                   0      0.00%     82.93% # Type of FU issued
system.cpu0.iq.FU_type_0::SimdCmp                   0      0.00%     82.93% # Type of FU issued
system.cpu0.iq.FU_type_0::SimdCvt                   0      0.00%     82.93% # Type of FU issued
system.cpu0.iq.FU_type_0::SimdMisc                  0      0.00%     82.93% # Type of FU issued
system.cpu0.iq.FU_type_0::SimdMult                  0      0.00%     82.93% # Type of FU issued
system.cpu0.iq.FU_type_0::SimdMultAcc               0      0.00%     82.93% # Type of FU issued
system.cpu0.iq.FU_type_0::SimdShift                 0      0.00%     82.93% # Type of FU issued
system.cpu0.iq.FU_type_0::SimdShiftAcc              0      0.00%     82.93% # Type of FU issued
system.cpu0.iq.FU_type_0::SimdSqrt                  0      0.00%     82.93% # Type of FU issued
system.cpu0.iq.FU_type_0::SimdFloatAdd              0      0.00%     82.93% # Type of FU issued
system.cpu0.iq.FU_type_0::SimdFloatAlu              0      0.00%     82.93% # Type of FU issued
system.cpu0.iq.FU_type_0::SimdFloatCmp              0      0.00%     82.93% # Type of FU issued
system.cpu0.iq.FU_type_0::SimdFloatCvt              0      0.00%     82.93% # Type of FU issued
system.cpu0.iq.FU_type_0::SimdFloatDiv              0      0.00%     82.93% # Type of FU issued
system.cpu0.iq.FU_type_0::SimdFloatMisc             0      0.00%     82.93% # Type of FU issued
system.cpu0.iq.FU_type_0::SimdFloatMult             0      0.00%     82.93% # Type of FU issued
system.cpu0.iq.FU_type_0::SimdFloatMultAcc            0      0.00%     82.93% # Type of FU issued
system.cpu0.iq.FU_type_0::SimdFloatSqrt             0      0.00%     82.93% # Type of FU issued
system.cpu0.iq.FU_type_0::MemRead              762386     15.67%     98.61% # Type of FU issued
system.cpu0.iq.FU_type_0::MemWrite              65530      1.35%     99.96% # Type of FU issued
system.cpu0.iq.FU_type_0::FloatMemRead           2030      0.04%    100.00% # Type of FU issued
system.cpu0.iq.FU_type_0::FloatMemWrite            85      0.00%    100.00% # Type of FU issued
system.cpu0.iq.FU_type_0::IprAccess                 0      0.00%    100.00% # Type of FU issued
system.cpu0.iq.FU_type_0::InstPrefetch              0      0.00%    100.00% # Type of FU issued
system.cpu0.iq.FU_type_0::total               4863868                       # Type of FU issued
system.cpu0.iq.rate                          0.159290                       # Inst issue rate
system.cpu0.iq.fu_busy_cnt                      16601                       # FU busy when requested
system.cpu0.iq.fu_busy_rate                  0.003413                       # FU busy rate (busy events/executed inst)
system.cpu0.iq.int_inst_queue_reads          40206350                       # Number of integer instruction queue reads
system.cpu0.iq.int_inst_queue_writes         10892502                       # Number of integer instruction queue writes
system.cpu0.iq.int_inst_queue_wakeup_accesses      4656647                       # Number of integer instruction queue wakeup accesses
system.cpu0.iq.fp_inst_queue_reads              35824                       # Number of floating instruction queue reads
system.cpu0.iq.fp_inst_queue_writes             28310                       # Number of floating instruction queue writes
system.cpu0.iq.fp_inst_queue_wakeup_accesses        16303                       # Number of floating instruction queue wakeup accesses
system.cpu0.iq.vec_inst_queue_reads                 0                       # Number of vector instruction queue reads
system.cpu0.iq.vec_inst_queue_writes                0                       # Number of vector instruction queue writes
system.cpu0.iq.vec_inst_queue_wakeup_accesses            0                       # Number of vector instruction queue wakeup accesses
system.cpu0.iq.int_alu_accesses               4842620                       # Number of integer alu accesses
system.cpu0.iq.fp_alu_accesses                  18433                       # Number of floating point alu accesses
system.cpu0.iq.vec_alu_accesses                     0                       # Number of vector alu accesses
system.cpu0.iew.lsq.thread0.forwLoads            5237                       # Number of loads that had data forwarded from stores
system.cpu0.iew.lsq.thread0.invAddrLoads            0                       # Number of loads ignored due to an invalid address
system.cpu0.iew.lsq.thread0.squashedLoads       791763                       # Number of loads squashed
system.cpu0.iew.lsq.thread0.ignoredResponses          149                       # Number of memory responses ignored because the instruction is squashed
system.cpu0.iew.lsq.thread0.memOrderViolation            2                       # Number of memory ordering violations
system.cpu0.iew.lsq.thread0.squashedStores        59827                       # Number of stores squashed
system.cpu0.iew.lsq.thread0.invAddrSwpfs            0                       # Number of software prefetches ignored due to an invalid address
system.cpu0.iew.lsq.thread0.blockedLoads            0                       # Number of blocked loads due to partial load-store forwarding
system.cpu0.iew.lsq.thread0.rescheduledLoads           43                       # Number of loads that were rescheduled
system.cpu0.iew.lsq.thread0.cacheBlocked         1050                       # Number of times an access to memory failed due to the cache being blocked
system.cpu0.iew.iewIdleCycles                       0                       # Number of cycles IEW is idle
system.cpu0.iew.iewSquashCycles                 67954                       # Number of cycles IEW is squashing
system.cpu0.iew.iewBlockCycles               25350098                       # Number of cycles IEW is blocking
system.cpu0.iew.iewUnblockCycles               284819                       # Number of cycles IEW is unblocking
system.cpu0.iew.iewDispatchedInsts            6704101                       # Number of instructions dispatched to IQ
system.cpu0.iew.iewDispSquashedInsts             4703                       # Number of squashed instructions skipped by dispatch
system.cpu0.iew.iewDispLoadInsts              1250650                       # Number of dispatched load instructions
system.cpu0.iew.iewDispStoreInsts               90337                       # Number of dispatched store instructions
system.cpu0.iew.iewDispNonSpecInsts              1990                       # Number of dispatched non-speculative instructions
system.cpu0.iew.iewIQFullEvents                 18718                       # Number of times the IQ has become full, causing a stall
system.cpu0.iew.iewLSQFullEvents                84135                       # Number of times the LSQ has become full, causing a stall
system.cpu0.iew.memOrderViolationEvents             2                       # Number of memory order violations
system.cpu0.iew.predictedTakenIncorrect         35203                       # Number of branches that were predicted taken incorrectly
system.cpu0.iew.predictedNotTakenIncorrect        40896                       # Number of branches that were predicted not taken incorrectly
system.cpu0.iew.branchMispredicts               76099                       # Number of branch mispredicts detected at execute
system.cpu0.iew.iewExecutedInsts              4771807                       # Number of executed instructions
system.cpu0.iew.iewExecLoadInsts               731135                       # Number of load instructions executed
system.cpu0.iew.iewExecSquashedInsts            92061                       # Number of squashed instructions skipped in execute
system.cpu0.iew.exec_swp                            0                       # number of swp insts executed
system.cpu0.iew.exec_nop                            0                       # number of nop insts executed
system.cpu0.iew.exec_refs                      791997                       # number of memory reference insts executed
system.cpu0.iew.exec_branches                  571453                       # Number of branches executed
system.cpu0.iew.exec_stores                     60862                       # Number of stores executed
system.cpu0.iew.exec_rate                    0.156275                       # Inst execution rate
system.cpu0.iew.wb_sent                       4691067                       # cumulative count of insts sent to commit
system.cpu0.iew.wb_count                      4672950                       # cumulative count of insts written-back
system.cpu0.iew.wb_producers                  3409253                       # num instructions producing a value
system.cpu0.iew.wb_consumers                  5439548                       # num instructions consuming a value
system.cpu0.iew.wb_rate                      0.153037                       # insts written-back per cycle
system.cpu0.iew.wb_fanout                    0.626753                       # average fanout of values written-back
system.cpu0.commit.commitSquashedInsts        4217629                       # The number of squashed insts skipped by commit
system.cpu0.commit.commitNonSpecStalls              1                       # The number of times commit has been forced to stall to communicate backwards
system.cpu0.commit.branchMispredicts            67954                       # The number of times a branch was mispredicted
system.cpu0.commit.committed_per_cycle::samples     29887028                       # Number of insts commited each cycle
system.cpu0.commit.committed_per_cycle::mean     0.083226                       # Number of insts commited each cycle
system.cpu0.commit.committed_per_cycle::stdev     0.533491                       # Number of insts commited each cycle
system.cpu0.commit.committed_per_cycle::underflows            0      0.00%      0.00% # Number of insts commited each cycle
system.cpu0.commit.committed_per_cycle::0     28811600     96.40%     96.40% # Number of insts commited each cycle
system.cpu0.commit.committed_per_cycle::1       491173      1.64%     98.05% # Number of insts commited each cycle
system.cpu0.commit.committed_per_cycle::2       122362      0.41%     98.45% # Number of insts commited each cycle
system.cpu0.commit.committed_per_cycle::3       323945      1.08%     99.54% # Number of insts commited each cycle
system.cpu0.commit.committed_per_cycle::4        55505      0.19%     99.72% # Number of insts commited each cycle
system.cpu0.commit.committed_per_cycle::5        27880      0.09%     99.82% # Number of insts commited each cycle
system.cpu0.commit.committed_per_cycle::6         7014      0.02%     99.84% # Number of insts commited each cycle
system.cpu0.commit.committed_per_cycle::7         4240      0.01%     99.86% # Number of insts commited each cycle
system.cpu0.commit.committed_per_cycle::8        43309      0.14%    100.00% # Number of insts commited each cycle
system.cpu0.commit.committed_per_cycle::overflows            0      0.00%    100.00% # Number of insts commited each cycle
system.cpu0.commit.committed_per_cycle::min_value            0                       # Number of insts commited each cycle
system.cpu0.commit.committed_per_cycle::max_value            8                       # Number of insts commited each cycle
system.cpu0.commit.committed_per_cycle::total     29887028                       # Number of insts commited each cycle
system.cpu0.commit.committedInsts             1244536                       # Number of instructions committed
system.cpu0.commit.committedOps               2487388                       # Number of ops (including micro ops) committed
system.cpu0.commit.swp_count                        0                       # Number of s/w prefetches committed
system.cpu0.commit.refs                        489395                       # Number of memory references committed
system.cpu0.commit.loads                       458885                       # Number of loads committed
system.cpu0.commit.membars                          0                       # Number of memory barriers committed
system.cpu0.commit.branches                    441045                       # Number of branches committed
system.cpu0.commit.vec_insts                        0                       # Number of committed Vector instructions.
system.cpu0.commit.fp_insts                     12148                       # Number of committed floating point instructions.
system.cpu0.commit.int_insts                  2475134                       # Number of committed integer instructions.
system.cpu0.commit.function_calls                5379                       # Number of function calls committed.
system.cpu0.commit.op_class_0::No_OpClass         3617      0.15%      0.15% # Class of committed instruction
system.cpu0.commit.op_class_0::IntAlu         1975106     79.40%     79.55% # Class of committed instruction
system.cpu0.commit.op_class_0::IntMult            215      0.01%     79.56% # Class of committed instruction
system.cpu0.commit.op_class_0::IntDiv            8663      0.35%     79.91% # Class of committed instruction
system.cpu0.commit.op_class_0::FloatAdd         10392      0.42%     80.32% # Class of committed instruction
system.cpu0.commit.op_class_0::FloatCmp             0      0.00%     80.32% # Class of committed instruction
system.cpu0.commit.op_class_0::FloatCvt             0      0.00%     80.32% # Class of committed instruction
system.cpu0.commit.op_class_0::FloatMult            0      0.00%     80.32% # Class of committed instruction
system.cpu0.commit.op_class_0::FloatMultAcc            0      0.00%     80.32% # Class of committed instruction
system.cpu0.commit.op_class_0::FloatDiv             0      0.00%     80.32% # Class of committed instruction
system.cpu0.commit.op_class_0::FloatMisc            0      0.00%     80.32% # Class of committed instruction
system.cpu0.commit.op_class_0::FloatSqrt            0      0.00%     80.32% # Class of committed instruction
system.cpu0.commit.op_class_0::SimdAdd              0      0.00%     80.32% # Class of committed instruction
system.cpu0.commit.op_class_0::SimdAddAcc            0      0.00%     80.32% # Class of committed instruction
system.cpu0.commit.op_class_0::SimdAlu              0      0.00%     80.32% # Class of committed instruction
system.cpu0.commit.op_class_0::SimdCmp              0      0.00%     80.32% # Class of committed instruction
system.cpu0.commit.op_class_0::SimdCvt              0      0.00%     80.32% # Class of committed instruction
system.cpu0.commit.op_class_0::SimdMisc             0      0.00%     80.32% # Class of committed instruction
system.cpu0.commit.op_class_0::SimdMult             0      0.00%     80.32% # Class of committed instruction
system.cpu0.commit.op_class_0::SimdMultAcc            0      0.00%     80.32% # Class of committed instruction
system.cpu0.commit.op_class_0::SimdShift            0      0.00%     80.32% # Class of committed instruction
system.cpu0.commit.op_class_0::SimdShiftAcc            0      0.00%     80.32% # Class of committed instruction
system.cpu0.commit.op_class_0::SimdSqrt             0      0.00%     80.32% # Class of committed instruction
system.cpu0.commit.op_class_0::SimdFloatAdd            0      0.00%     80.32% # Class of committed instruction
system.cpu0.commit.op_class_0::SimdFloatAlu            0      0.00%     80.32% # Class of committed instruction
system.cpu0.commit.op_class_0::SimdFloatCmp            0      0.00%     80.32% # Class of committed instruction
system.cpu0.commit.op_class_0::SimdFloatCvt            0      0.00%     80.32% # Class of committed instruction
system.cpu0.commit.op_class_0::SimdFloatDiv            0      0.00%     80.32% # Class of committed instruction
system.cpu0.commit.op_class_0::SimdFloatMisc            0      0.00%     80.32% # Class of committed instruction
system.cpu0.commit.op_class_0::SimdFloatMult            0      0.00%     80.32% # Class of committed instruction
system.cpu0.commit.op_class_0::SimdFloatMultAcc            0      0.00%     80.32% # Class of committed instruction
system.cpu0.commit.op_class_0::SimdFloatSqrt            0      0.00%     80.32% # Class of committed instruction
system.cpu0.commit.op_class_0::MemRead         457129     18.38%     98.70% # Class of committed instruction
system.cpu0.commit.op_class_0::MemWrite         30510      1.23%     99.93% # Class of committed instruction
system.cpu0.commit.op_class_0::FloatMemRead         1756      0.07%    100.00% # Class of committed instruction
system.cpu0.commit.op_class_0::FloatMemWrite            0      0.00%    100.00% # Class of committed instruction
system.cpu0.commit.op_class_0::IprAccess            0      0.00%    100.00% # Class of committed instruction
system.cpu0.commit.op_class_0::InstPrefetch            0      0.00%    100.00% # Class of committed instruction
system.cpu0.commit.op_class_0::total          2487388                       # Class of committed instruction
system.cpu0.commit.bw_lim_events                43309                       # number cycles where commit BW limit reached
system.cpu0.rob.rob_reads                    36548736                       # The number of ROB reads
system.cpu0.rob.rob_writes                   14016431                       # The number of ROB writes
system.cpu0.timesIdled                            327                       # Number of times that the entire CPU went into an idle state and unscheduled itself
system.cpu0.idleCycles                          43036                       # Total number of cycles that the CPU has spent unscheduled due to idling
system.cpu0.committedInsts                    1244536                       # Number of Instructions Simulated
system.cpu0.committedOps                      2487388                       # Number of Ops (including micro ops) Simulated
system.cpu0.cpi                             24.534998                       # CPI: Cycles Per Instruction
system.cpu0.cpi_total                       24.534998                       # CPI: Total CPI of All Threads
system.cpu0.ipc                              0.040758                       # IPC: Instructions Per Cycle
system.cpu0.ipc_total                        0.040758                       # IPC: Total IPC of All Threads
system.cpu0.int_regfile_reads                 4908740                       # number of integer regfile reads
system.cpu0.int_regfile_writes                4046763                       # number of integer regfile writes
system.cpu0.fp_regfile_reads                    28905                       # number of floating regfile reads
system.cpu0.fp_regfile_writes                   14385                       # number of floating regfile writes
system.cpu0.cc_regfile_reads                  2955958                       # number of cc regfile reads
system.cpu0.cc_regfile_writes                 1299214                       # number of cc regfile writes
system.cpu0.misc_regfile_reads                2477695                       # number of misc regfile reads
system.cpu0.dcache.tags.pwrStateResidencyTicks::UNDEFINED  15267344125                       # Cumulative time (in ticks) in various power states
system.cpu0.dcache.tags.replacements           235791                       # number of replacements
system.cpu0.dcache.tags.tagsinuse                1024                       # Cycle average of tags in use
system.cpu0.dcache.tags.total_refs             332186                       # Total number of references to valid blocks.
system.cpu0.dcache.tags.sampled_refs           235791                       # Sample count of references to valid blocks.
system.cpu0.dcache.tags.avg_refs             1.408815                       # Average number of references to valid blocks.
system.cpu0.dcache.tags.warmup_cycle                0                       # Cycle when the warmup percentage was hit.
system.cpu0.dcache.tags.occ_blocks::cpu0.data         1024                       # Average occupied blocks per requestor
system.cpu0.dcache.tags.occ_percent::cpu0.data            1                       # Average percentage of cache occupancy
system.cpu0.dcache.tags.occ_percent::total            1                       # Average percentage of cache occupancy
system.cpu0.dcache.tags.occ_task_id_blocks::1024         1024                       # Occupied blocks per task id
system.cpu0.dcache.tags.age_task_id_blocks_1024::0          134                       # Occupied blocks per task id
system.cpu0.dcache.tags.age_task_id_blocks_1024::1          797                       # Occupied blocks per task id
system.cpu0.dcache.tags.age_task_id_blocks_1024::2           93                       # Occupied blocks per task id
system.cpu0.dcache.tags.occ_task_id_percent::1024            1                       # Percentage of cache occupancy per task id
system.cpu0.dcache.tags.tag_accesses          3244431                       # Number of tag accesses
system.cpu0.dcache.tags.data_accesses         3244431                       # Number of data accesses
system.cpu0.dcache.pwrStateResidencyTicks::UNDEFINED  15267344125                       # Cumulative time (in ticks) in various power states
system.cpu0.dcache.ReadReq_hits::cpu0.data       301745                       # number of ReadReq hits
system.cpu0.dcache.ReadReq_hits::total         301745                       # number of ReadReq hits
system.cpu0.dcache.WriteReq_hits::cpu0.data        29543                       # number of WriteReq hits
system.cpu0.dcache.WriteReq_hits::total         29543                       # number of WriteReq hits
system.cpu0.dcache.demand_hits::cpu0.data       331288                       # number of demand (read+write) hits
system.cpu0.dcache.demand_hits::total          331288                       # number of demand (read+write) hits
system.cpu0.dcache.overall_hits::cpu0.data       331288                       # number of overall hits
system.cpu0.dcache.overall_hits::total         331288                       # number of overall hits
system.cpu0.dcache.ReadReq_misses::cpu0.data       419905                       # number of ReadReq misses
system.cpu0.dcache.ReadReq_misses::total       419905                       # number of ReadReq misses
system.cpu0.dcache.WriteReq_misses::cpu0.data          967                       # number of WriteReq misses
system.cpu0.dcache.WriteReq_misses::total          967                       # number of WriteReq misses
system.cpu0.dcache.demand_misses::cpu0.data       420872                       # number of demand (read+write) misses
system.cpu0.dcache.demand_misses::total        420872                       # number of demand (read+write) misses
system.cpu0.dcache.overall_misses::cpu0.data       420872                       # number of overall misses
system.cpu0.dcache.overall_misses::total       420872                       # number of overall misses
system.cpu0.dcache.ReadReq_miss_latency::cpu0.data  34592160000                       # number of ReadReq miss cycles
system.cpu0.dcache.ReadReq_miss_latency::total  34592160000                       # number of ReadReq miss cycles
system.cpu0.dcache.WriteReq_miss_latency::cpu0.data     40936000                       # number of WriteReq miss cycles
system.cpu0.dcache.WriteReq_miss_latency::total     40936000                       # number of WriteReq miss cycles
system.cpu0.dcache.demand_miss_latency::cpu0.data  34633096000                       # number of demand (read+write) miss cycles
system.cpu0.dcache.demand_miss_latency::total  34633096000                       # number of demand (read+write) miss cycles
system.cpu0.dcache.overall_miss_latency::cpu0.data  34633096000                       # number of overall miss cycles
system.cpu0.dcache.overall_miss_latency::total  34633096000                       # number of overall miss cycles
system.cpu0.dcache.ReadReq_accesses::cpu0.data       721650                       # number of ReadReq accesses(hits+misses)
system.cpu0.dcache.ReadReq_accesses::total       721650                       # number of ReadReq accesses(hits+misses)
system.cpu0.dcache.WriteReq_accesses::cpu0.data        30510                       # number of WriteReq accesses(hits+misses)
system.cpu0.dcache.WriteReq_accesses::total        30510                       # number of WriteReq accesses(hits+misses)
system.cpu0.dcache.demand_accesses::cpu0.data       752160                       # number of demand (read+write) accesses
system.cpu0.dcache.demand_accesses::total       752160                       # number of demand (read+write) accesses
system.cpu0.dcache.overall_accesses::cpu0.data       752160                       # number of overall (read+write) accesses
system.cpu0.dcache.overall_accesses::total       752160                       # number of overall (read+write) accesses
system.cpu0.dcache.ReadReq_miss_rate::cpu0.data     0.581868                       # miss rate for ReadReq accesses
system.cpu0.dcache.ReadReq_miss_rate::total     0.581868                       # miss rate for ReadReq accesses
system.cpu0.dcache.WriteReq_miss_rate::cpu0.data     0.031695                       # miss rate for WriteReq accesses
system.cpu0.dcache.WriteReq_miss_rate::total     0.031695                       # miss rate for WriteReq accesses
[...]
system.l2.overall_accesses::cpu0.inst               3                       # number of overall (read+write) accesses
system.l2.overall_accesses::cpu0.data          235792                       # number of overall (read+write) accesses
system.l2.overall_accesses::total              235795                       # number of overall (read+write) accesses
system.l2.ReadExReq_miss_rate::cpu0.data     0.310811                       # miss rate for ReadExReq accesses
system.l2.ReadExReq_miss_rate::total         0.310811                       # miss rate for ReadExReq accesses
system.l2.ReadCleanReq_miss_rate::cpu0.inst            1                       # miss rate for ReadCleanReq accesses
system.l2.ReadCleanReq_miss_rate::total             1                       # miss rate for ReadCleanReq accesses
system.l2.ReadSharedReq_miss_rate::cpu0.data     0.831929                       # miss rate for ReadSharedReq accesses
system.l2.ReadSharedReq_miss_rate::total     0.831929                       # miss rate for ReadSharedReq accesses
system.l2.demand_miss_rate::cpu0.inst               1                       # miss rate for demand accesses
system.l2.demand_miss_rate::cpu0.data        0.829803                       # miss rate for demand accesses
system.l2.demand_miss_rate::total            0.829806                       # miss rate for demand accesses
system.l2.overall_miss_rate::cpu0.inst              1                       # miss rate for overall accesses
system.l2.overall_miss_rate::cpu0.data       0.829803                       # miss rate for overall accesses
system.l2.overall_miss_rate::total           0.829806                       # miss rate for overall accesses
system.l2.ReadExReq_avg_miss_latency::cpu0.data 103242.474916                       # average ReadExReq miss latency
system.l2.ReadExReq_avg_miss_latency::total 103242.474916                       # average ReadExReq miss latency
system.l2.ReadCleanReq_avg_miss_latency::cpu0.inst 106333.333333                       # average ReadCleanReq miss latency
system.l2.ReadCleanReq_avg_miss_latency::total 106333.333333                       # average ReadCleanReq miss latency
system.l2.ReadSharedReq_avg_miss_latency::cpu0.data 94338.622659                       # average ReadSharedReq miss latency
system.l2.ReadSharedReq_avg_miss_latency::total 94338.622659                       # average ReadSharedReq miss latency
system.l2.demand_avg_miss_latency::cpu0.inst 106333.333333                       # average overall miss latency
system.l2.demand_avg_miss_latency::cpu0.data 94352.229111                       # average overall miss latency
system.l2.demand_avg_miss_latency::total 94352.412810                       # average overall miss latency
system.l2.overall_avg_miss_latency::cpu0.inst 106333.333333                       # average overall miss latency
system.l2.overall_avg_miss_latency::cpu0.data 94352.229111                       # average overall miss latency
system.l2.overall_avg_miss_latency::total 94352.412810                       # average overall miss latency
system.l2.blocked_cycles::no_mshrs                  0                       # number of cycles access was blocked
system.l2.blocked_cycles::no_targets                0                       # number of cycles access was blocked
system.l2.blocked::no_mshrs                         0                       # number of cycles access was blocked
system.l2.blocked::no_targets                       0                       # number of cycles access was blocked
system.l2.avg_blocked_cycles::no_mshrs            nan                       # average number of cycles each access was blocked
system.l2.avg_blocked_cycles::no_targets          nan                       # average number of cycles each access was blocked
system.l2.writebacks::writebacks                  464                       # number of writebacks
system.l2.writebacks::total                       464                       # number of writebacks
system.l2.CleanEvict_mshr_misses::writebacks            1                       # number of CleanEvict MSHR misses
system.l2.CleanEvict_mshr_misses::total             1                       # number of CleanEvict MSHR misses
system.l2.ReadExReq_mshr_misses::cpu0.data          299                       # number of ReadExReq MSHR misses
system.l2.ReadExReq_mshr_misses::total            299                       # number of ReadExReq MSHR misses
system.l2.ReadCleanReq_mshr_misses::cpu0.inst            3                       # number of ReadCleanReq MSHR misses
system.l2.ReadCleanReq_mshr_misses::total            3                       # number of ReadCleanReq MSHR misses
system.l2.ReadSharedReq_mshr_misses::cpu0.data       195362                       # number of ReadSharedReq MSHR misses
system.l2.ReadSharedReq_mshr_misses::total       195362                       # number of ReadSharedReq MSHR misses
system.l2.demand_mshr_misses::cpu0.inst             3                       # number of demand (read+write) MSHR misses
system.l2.demand_mshr_misses::cpu0.data        195661                       # number of demand (read+write) MSHR misses
system.l2.demand_mshr_misses::total            195664                       # number of demand (read+write) MSHR misses
system.l2.overall_mshr_misses::cpu0.inst            3                       # number of overall MSHR misses
system.l2.overall_mshr_misses::cpu0.data       195661                       # number of overall MSHR misses
system.l2.overall_mshr_misses::total           195664                       # number of overall MSHR misses
system.l2.ReadExReq_mshr_miss_latency::cpu0.data     27879500                       # number of ReadExReq MSHR miss cycles
system.l2.ReadExReq_mshr_miss_latency::total     27879500                       # number of ReadExReq MSHR miss cycles
system.l2.ReadCleanReq_mshr_miss_latency::cpu0.inst       289000                       # number of ReadCleanReq MSHR miss cycles
system.l2.ReadCleanReq_mshr_miss_latency::total       289000                       # number of ReadCleanReq MSHR miss cycles
system.l2.ReadSharedReq_mshr_miss_latency::cpu0.data  16476572000                       # number of ReadSharedReq MSHR miss cycles
system.l2.ReadSharedReq_mshr_miss_latency::total  16476572000                       # number of ReadSharedReq MSHR miss cycles
system.l2.demand_mshr_miss_latency::cpu0.inst       289000                       # number of demand (read+write) MSHR miss cycles
system.l2.demand_mshr_miss_latency::cpu0.data  16504451500                       # number of demand (read+write) MSHR miss cycles
system.l2.demand_mshr_miss_latency::total  16504740500                       # number of demand (read+write) MSHR miss cycles
system.l2.overall_mshr_miss_latency::cpu0.inst       289000                       # number of overall MSHR miss cycles
system.l2.overall_mshr_miss_latency::cpu0.data  16504451500                       # number of overall MSHR miss cycles
system.l2.overall_mshr_miss_latency::total  16504740500                       # number of overall MSHR miss cycles
system.l2.CleanEvict_mshr_miss_rate::writebacks          inf                       # mshr miss rate for CleanEvict accesses
system.l2.CleanEvict_mshr_miss_rate::total          inf                       # mshr miss rate for CleanEvict accesses
system.l2.ReadExReq_mshr_miss_rate::cpu0.data     0.310811                       # mshr miss rate for ReadExReq accesses
system.l2.ReadExReq_mshr_miss_rate::total     0.310811                       # mshr miss rate for ReadExReq accesses
system.l2.ReadCleanReq_mshr_miss_rate::cpu0.inst            1                       # mshr miss rate for ReadCleanReq accesses
system.l2.ReadCleanReq_mshr_miss_rate::total            1                       # mshr miss rate for ReadCleanReq accesses
system.l2.ReadSharedReq_mshr_miss_rate::cpu0.data     0.831929                       # mshr miss rate for ReadSharedReq accesses
system.l2.ReadSharedReq_mshr_miss_rate::total     0.831929                       # mshr miss rate for ReadSharedReq accesses
system.l2.demand_mshr_miss_rate::cpu0.inst            1                       # mshr miss rate for demand accesses
system.l2.demand_mshr_miss_rate::cpu0.data     0.829803                       # mshr miss rate for demand accesses
system.l2.demand_mshr_miss_rate::total       0.829806                       # mshr miss rate for demand accesses
system.l2.overall_mshr_miss_rate::cpu0.inst            1                       # mshr miss rate for overall accesses
system.l2.overall_mshr_miss_rate::cpu0.data     0.829803                       # mshr miss rate for overall accesses
system.l2.overall_mshr_miss_rate::total      0.829806                       # mshr miss rate for overall accesses
system.l2.ReadExReq_avg_mshr_miss_latency::cpu0.data 93242.474916                       # average ReadExReq mshr miss latency
system.l2.ReadExReq_avg_mshr_miss_latency::total 93242.474916                       # average ReadExReq mshr miss latency
system.l2.ReadCleanReq_avg_mshr_miss_latency::cpu0.inst 96333.333333                       # average ReadCleanReq mshr miss latency
system.l2.ReadCleanReq_avg_mshr_miss_latency::total 96333.333333                       # average ReadCleanReq mshr miss latency
system.l2.ReadSharedReq_avg_mshr_miss_latency::cpu0.data 84338.673847                       # average ReadSharedReq mshr miss latency
system.l2.ReadSharedReq_avg_mshr_miss_latency::total 84338.673847                       # average ReadSharedReq mshr miss latency
system.l2.demand_avg_mshr_miss_latency::cpu0.inst 96333.333333                       # average overall mshr miss latency
system.l2.demand_avg_mshr_miss_latency::cpu0.data 84352.280219                       # average overall mshr miss latency
system.l2.demand_avg_mshr_miss_latency::total 84352.463918                       # average overall mshr miss latency
system.l2.overall_avg_mshr_miss_latency::cpu0.inst 96333.333333                       # average overall mshr miss latency
system.l2.overall_avg_mshr_miss_latency::cpu0.data 84352.280219                       # average overall mshr miss latency
system.l2.overall_avg_mshr_miss_latency::total 84352.463918                       # average overall mshr miss latency
system.membus.snoop_filter.tot_requests        391323                       # Total number of requests made to the snoop filter.
system.membus.snoop_filter.hit_single_requests       195662                       # Number of requests hitting in the snoop filter with a single holder of the requested data.
system.membus.snoop_filter.hit_multi_requests            0                       # Number of requests hitting in the snoop filter with multiple (>1) holders of the requested data.
system.membus.snoop_filter.tot_snoops               0                       # Total number of snoops made to the snoop filter.
system.membus.snoop_filter.hit_single_snoops            0                       # Number of snoops hitting in the snoop filter with a single holder of the requested data.
system.membus.snoop_filter.hit_multi_snoops            0                       # Number of snoops hitting in the snoop filter with multiple (>1) holders of the requested data.
system.membus.pwrStateResidencyTicks::UNDEFINED  15267344125                       # Cumulative time (in ticks) in various power states
system.membus.trans_dist::ReadResp             195364                       # Transaction distribution
system.membus.trans_dist::WritebackDirty          464                       # Transaction distribution
system.membus.trans_dist::CleanEvict           195195                       # Transaction distribution
system.membus.trans_dist::ReadExReq               299                       # Transaction distribution
system.membus.trans_dist::ReadExResp              299                       # Transaction distribution
system.membus.trans_dist::ReadSharedReq        195365                       # Transaction distribution
system.membus.pkt_count_system.l2.mem_side::system.mem_ctrls.port       586986                       # Packet count per connected master and slave (bytes)
system.membus.pkt_count_system.l2.mem_side::total       586986                       # Packet count per connected master and slave (bytes)
system.membus.pkt_count::total                 586986                       # Packet count per connected master and slave (bytes)
system.membus.pkt_size_system.l2.mem_side::system.mem_ctrls.port     12552128                       # Cumulative packet size per connected master and slave (bytes)
system.membus.pkt_size_system.l2.mem_side::total     12552128                       # Cumulative packet size per connected master and slave (bytes)
system.membus.pkt_size::total                12552128                       # Cumulative packet size per connected master and slave (bytes)
system.membus.snoops                                0                       # Total snoops (count)
system.membus.snoopTraffic                          0                       # Total snoop traffic (bytes)
system.membus.snoop_fanout::samples            195664                       # Request fanout histogram
system.membus.snoop_fanout::mean                    0                       # Request fanout histogram
system.membus.snoop_fanout::stdev                   0                       # Request fanout histogram
system.membus.snoop_fanout::underflows              0      0.00%      0.00% # Request fanout histogram
system.membus.snoop_fanout::0                  195664    100.00%    100.00% # Request fanout histogram
system.membus.snoop_fanout::1                       0      0.00%    100.00% # Request fanout histogram
system.membus.snoop_fanout::overflows               0      0.00%    100.00% # Request fanout histogram
system.membus.snoop_fanout::min_value               0                       # Request fanout histogram
system.membus.snoop_fanout::max_value               0                       # Request fanout histogram
system.membus.snoop_fanout::total              195664                       # Request fanout histogram
system.membus.reqLayer4.occupancy           461580500                       # Layer occupancy (ticks)
system.membus.reqLayer4.utilization               3.0                       # Layer utilization (%)
system.membus.respLayer1.occupancy         1057520500                       # Layer occupancy (ticks)
system.membus.respLayer1.utilization              6.9                       # Layer utilization (%)
system.tol2bus.snoop_filter.tot_requests       471589                       # Total number of requests made to the snoop filter.
system.tol2bus.snoop_filter.hit_single_requests       235792                       # Number of requests hitting in the snoop filter with a single holder of the requested data.
system.tol2bus.snoop_filter.hit_multi_requests          532                       # Number of requests hitting in the snoop filter with multiple (>1) holders of the requested data.
system.tol2bus.snoop_filter.tot_snoops             12                       # Total number of snoops made to the snoop filter.
system.tol2bus.snoop_filter.hit_single_snoops           11                       # Number of snoops hitting in the snoop filter with a single holder of the requested data.
system.tol2bus.snoop_filter.hit_multi_snoops            1                       # Number of snoops hitting in the snoop filter with multiple (>1) holders of the requested data.
system.tol2bus.pwrStateResidencyTicks::UNDEFINED  15267344125                       # Cumulative time (in ticks) in various power states
system.tol2bus.trans_dist::ReadResp            234832                       # Transaction distribution
system.tol2bus.trans_dist::WritebackDirty         2712                       # Transaction distribution
system.tol2bus.trans_dist::WritebackClean            3                       # Transaction distribution
system.tol2bus.trans_dist::CleanEvict          428749                       # Transaction distribution
system.tol2bus.trans_dist::ReadExReq              962                       # Transaction distribution
system.tol2bus.trans_dist::ReadExResp             962                       # Transaction distribution
system.tol2bus.trans_dist::ReadCleanReq             3                       # Transaction distribution
system.tol2bus.trans_dist::ReadSharedReq       234830                       # Transaction distribution
system.tol2bus.pkt_count_system.cpu0.icache.mem_side::system.l2.cpu_side            9                       # Packet count per connected master and slave (bytes)
system.tol2bus.pkt_count_system.cpu0.dcache.mem_side::system.l2.cpu_side       707374                       # Packet count per connected master and slave (bytes)
system.tol2bus.pkt_count::total                707383                       # Packet count per connected master and slave (bytes)
system.tol2bus.pkt_size_system.cpu0.icache.mem_side::system.l2.cpu_side          384                       # Cumulative packet size per connected master and slave (bytes)
system.tol2bus.pkt_size_system.cpu0.dcache.mem_side::system.l2.cpu_side     15234496                       # Cumulative packet size per connected master and slave (bytes)
system.tol2bus.pkt_size::total               15234880                       # Cumulative packet size per connected master and slave (bytes)
system.tol2bus.snoops                          195670                       # Total snoops (count)
system.tol2bus.snoopTraffic                     29696                       # Total snoop traffic (bytes)
system.tol2bus.snoop_fanout::samples           431465                       # Request fanout histogram
system.tol2bus.snoop_fanout::mean            0.001259                       # Request fanout histogram
system.tol2bus.snoop_fanout::stdev           0.035518                       # Request fanout histogram
system.tol2bus.snoop_fanout::underflows             0      0.00%      0.00% # Request fanout histogram
system.tol2bus.snoop_fanout::0                 430923     99.87%     99.87% # Request fanout histogram
system.tol2bus.snoop_fanout::1                    541      0.13%    100.00% # Request fanout histogram
system.tol2bus.snoop_fanout::2                      1      0.00%    100.00% # Request fanout histogram
system.tol2bus.snoop_fanout::3                      0      0.00%    100.00% # Request fanout histogram
system.tol2bus.snoop_fanout::4                      0      0.00%    100.00% # Request fanout histogram
system.tol2bus.snoop_fanout::5                      0      0.00%    100.00% # Request fanout histogram
system.tol2bus.snoop_fanout::6                      0      0.00%    100.00% # Request fanout histogram
system.tol2bus.snoop_fanout::7                      0      0.00%    100.00% # Request fanout histogram
system.tol2bus.snoop_fanout::8                      0      0.00%    100.00% # Request fanout histogram
system.tol2bus.snoop_fanout::overflows              0      0.00%    100.00% # Request fanout histogram
system.tol2bus.snoop_fanout::min_value              0                       # Request fanout histogram
system.tol2bus.snoop_fanout::max_value              2                       # Request fanout histogram
system.tol2bus.snoop_fanout::total             431465                       # Request fanout histogram
system.tol2bus.reqLayer0.occupancy          238045500                       # Layer occupancy (ticks)
system.tol2bus.reqLayer0.utilization              1.6                       # Layer utilization (%)
system.tol2bus.respLayer0.occupancy              4500                       # Layer occupancy (ticks)
system.tol2bus.respLayer0.utilization             0.0                       # Layer utilization (%)
system.tol2bus.respLayer1.occupancy         353686500                       # Layer occupancy (ticks)
system.tol2bus.respLayer1.utilization             2.3                       # Layer utilization (%)

---------- End Simulation Statistics   ----------
