
---------- Begin Simulation Statistics ----------
sim_seconds                                  0.015267                       # Number of seconds simulated
sim_ticks                                 15267344125                       # Number of ticks simulated
final_tick                               4412262452125                       # Number of ticks from beginning of simulation (restored from checkpoints and never reset)
sim_freq                                 1000000000000                       # Frequency of simulated ticks
host_inst_rate                              110803206                       # Simulator instruction rate (inst/s)
host_op_rate                                205821044                       # Simulator op (including micro ops) rate (op/s)
host_tick_rate                              293662025                       # Simulator tick rate (ticks/s)
host_mem_usage                                2332684                       # Number of bytes of host memory used
host_seconds                                    51.99                       # Real time elapsed on the host
sim_insts                                  5760602248                       # Number of instructions simulated
sim_ops                                   10700533119                       # Number of ops (including micro ops) simulated
system.voltage_domain.voltage                       1                       # Voltage in Volts
system.clk_domain.clock                          1000                       # Clock period in ticks
system.mem_ctrls.pwrStateResidencyTicks::UNDEFINED  15267344125                       # Cumulative time (in ticks) in various power states
system.mem_ctrls.bytes_read::cpu0.inst             64                       # Number of bytes read from this memory
system.mem_ctrls.bytes_read::cpu0.data       11380352                       # Number of bytes read from this memory
system.mem_ctrls.bytes_read::total           11380416                       # Number of bytes read from this memory
system.mem_ctrls.bytes_inst_read::cpu0.inst           64                       # Number of instructions bytes read from this memory
system.mem_ctrls.bytes_inst_read::total            64                       # Number of instructions bytes read from this memory
system.mem_ctrls.bytes_written::writebacks        29568                       # Number of bytes written to this memory
system.mem_ctrls.bytes_written::total           29568                       # Number of bytes written to this memory
system.mem_ctrls.num_reads::cpu0.inst               1                       # Number of read requests responded to by this memory
system.mem_ctrls.num_reads::cpu0.data          177818                       # Number of read requests responded to by this memory
system.mem_ctrls.num_reads::total              177819                       # Number of read requests responded to by this memory
system.mem_ctrls.num_writes::writebacks           462                       # Number of write requests responded to by this memory
system.mem_ctrls.num_writes::total                462                       # Number of write requests responded to by this memory
system.mem_ctrls.bw_read::cpu0.inst              4192                       # Total read bandwidth from this memory (bytes/s)
system.mem_ctrls.bw_read::cpu0.data         745404827                       # Total read bandwidth from this memory (bytes/s)
system.mem_ctrls.bw_read::total             745409019                       # Total read bandwidth from this memory (bytes/s)
system.mem_ctrls.bw_inst_read::cpu0.inst         4192                       # Instruction read bandwidth from this memory (bytes/s)
system.mem_ctrls.bw_inst_read::total             4192                       # Instruction read bandwidth from this memory (bytes/s)
system.mem_ctrls.bw_write::writebacks         1936683                       # Write bandwidth from this memory (bytes/s)
system.mem_ctrls.bw_write::total              1936683                       # Write bandwidth from this memory (bytes/s)
system.mem_ctrls.bw_total::writebacks         1936683                       # Total bandwidth to/from this memory (bytes/s)
system.mem_ctrls.bw_total::cpu0.inst             4192                       # Total bandwidth to/from this memory (bytes/s)
system.mem_ctrls.bw_total::cpu0.data        745404827                       # Total bandwidth to/from this memory (bytes/s)
system.mem_ctrls.bw_total::total            747345701                       # Total bandwidth to/from this memory (bytes/s)
system.mem_ctrls.readReqs                      177818                       # Number of read requests accepted
system.mem_ctrls.writeReqs                        462                       # Number of write requests accepted
system.mem_ctrls.readBursts                    177818                       # Number of DRAM read bursts, including those serviced by the write queue
system.mem_ctrls.writeBursts                      462                       # Number of DRAM write bursts, including those merged in the write queue
system.mem_ctrls.bytesReadDRAM               11376000                       # Total number of bytes read from DRAM
system.mem_ctrls.bytesReadWrQ                    4352                       # Total number of bytes read from write queue
system.mem_ctrls.bytesWritten                   29824                       # Total number of bytes written to DRAM
system.mem_ctrls.bytesReadSys                11380352                       # Total read bytes from the system interface side
system.mem_ctrls.bytesWrittenSys                29568                       # Total written bytes from the system interface side
system.mem_ctrls.servicedByWrQ                     68                       # Number of DRAM read bursts serviced by the write queue
system.mem_ctrls.mergedWrBursts                     0                       # Number of DRAM write bursts merged with an existing one
system.mem_ctrls.neitherReadNorWriteReqs            0                       # Number of requests that are neither read nor write
system.mem_ctrls.perBankRdBursts::0             11224                       # Per bank write bursts
system.mem_ctrls.perBankRdBursts::1             10916                       # Per bank write bursts
system.mem_ctrls.perBankRdBursts::2             10656                       # Per bank write bursts
system.mem_ctrls.perBankRdBursts::3             10734                       # Per bank write bursts
system.mem_ctrls.perBankRdBursts::4             11001                       # Per bank write bursts
system.mem_ctrls.perBankRdBursts::5             11169                       # Per bank write bursts
system.mem_ctrls.perBankRdBursts::6             11067                       # Per bank write bursts
system.mem_ctrls.perBankRdBursts::7             10949                       # Per bank write bursts
system.mem_ctrls.perBankRdBursts::8             11099                       # Per bank write bursts
system.mem_ctrls.perBankRdBursts::9             10841                       # Per bank write bursts
system.mem_ctrls.perBankRdBursts::10            10948                       # Per bank write bursts
system.mem_ctrls.perBankRdBursts::11            11198                       # Per bank write bursts
system.mem_ctrls.perBankRdBursts::12            11806                       # Per bank write bursts
system.mem_ctrls.perBankRdBursts::13            11580                       # Per bank write bursts
system.mem_ctrls.perBankRdBursts::14            11357                       # Per bank write bursts
system.mem_ctrls.perBankRdBursts::15            11205                       # Per bank write bursts
system.mem_ctrls.perBankWrBursts::0                 0                       # Per bank write bursts
system.mem_ctrls.perBankWrBursts::1                 0                       # Per bank write bursts
system.mem_ctrls.perBankWrBursts::2                17                       # Per bank write bursts
system.mem_ctrls.perBankWrBursts::3                 0                       # Per bank write bursts
system.mem_ctrls.perBankWrBursts::4                 0                       # Per bank write bursts
system.mem_ctrls.perBankWrBursts::5                 0                       # Per bank write bursts
system.mem_ctrls.perBankWrBursts::6                 0                       # Per bank write bursts
system.mem_ctrls.perBankWrBursts::7                 1                       # Per bank write bursts
system.mem_ctrls.perBankWrBursts::8                12                       # Per bank write bursts
system.mem_ctrls.perBankWrBursts::9               105                       # Per bank write bursts
system.mem_ctrls.perBankWrBursts::10              155                       # Per bank write bursts
system.mem_ctrls.perBankWrBursts::11               84                       # Per bank write bursts
system.mem_ctrls.perBankWrBursts::12               92                       # Per bank write bursts
system.mem_ctrls.perBankWrBursts::13                0                       # Per bank write bursts
system.mem_ctrls.perBankWrBursts::14                0                       # Per bank write bursts
system.mem_ctrls.perBankWrBursts::15                0                       # Per bank write bursts
system.mem_ctrls.numRdRetry                         0                       # Number of times read queue was full causing retry
system.mem_ctrls.numWrRetry                         0                       # Number of times write queue was full causing retry
system.mem_ctrls.totGap                   15267322000                       # Total gap between requests
system.mem_ctrls.readPktSize::0                     0                       # Read request sizes (log2)
system.mem_ctrls.readPktSize::1                     0                       # Read request sizes (log2)
system.mem_ctrls.readPktSize::2                     0                       # Read request sizes (log2)
system.mem_ctrls.readPktSize::3                     0                       # Read request sizes (log2)
system.mem_ctrls.readPktSize::4                     0                       # Read request sizes (log2)
system.mem_ctrls.readPktSize::5                     0                       # Read request sizes (log2)
system.mem_ctrls.readPktSize::6                177818                       # Read request sizes (log2)
system.mem_ctrls.writePktSize::0                    0                       # Write request sizes (log2)
system.mem_ctrls.writePktSize::1                    0                       # Write request sizes (log2)
system.mem_ctrls.writePktSize::2                    0                       # Write request sizes (log2)
system.mem_ctrls.writePktSize::3                    0                       # Write request sizes (log2)
system.mem_ctrls.writePktSize::4                    0                       # Write request sizes (log2)
system.mem_ctrls.writePktSize::5                    0                       # Write request sizes (log2)
system.mem_ctrls.writePktSize::6                  462                       # Write request sizes (log2)
system.mem_ctrls.rdQLenPdf::0                  135882                       # What read queue length does an incoming req see
system.mem_ctrls.rdQLenPdf::1                   38936                       # What read queue length does an incoming req see
system.mem_ctrls.rdQLenPdf::2                    2850                       # What read queue length does an incoming req see
system.mem_ctrls.rdQLenPdf::3                      82                       # What read queue length does an incoming req see
system.mem_ctrls.rdQLenPdf::4                       0                       # What read queue length does an incoming req see
system.mem_ctrls.rdQLenPdf::5                       0                       # What read queue length does an incoming req see
system.mem_ctrls.rdQLenPdf::6                       0                       # What read queue length does an incoming req see
system.mem_ctrls.rdQLenPdf::7                       0                       # What read queue length does an incoming req see
system.mem_ctrls.rdQLenPdf::8                       0                       # What read queue length does an incoming req see
system.mem_ctrls.rdQLenPdf::9                       0                       # What read queue length does an incoming req see
system.mem_ctrls.rdQLenPdf::10                      0                       # What read queue length does an incoming req see
system.mem_ctrls.rdQLenPdf::11                      0                       # What read queue length does an incoming req see
system.mem_ctrls.rdQLenPdf::12                      0                       # What read queue length does an incoming req see
system.mem_ctrls.rdQLenPdf::13                      0                       # What read queue length does an incoming req see
system.mem_ctrls.rdQLenPdf::14                      0                       # What read queue length does an incoming req see
system.mem_ctrls.rdQLenPdf::15                      0                       # What read queue length does an incoming req see
system.mem_ctrls.rdQLenPdf::16                      0                       # What read queue length does an incoming req see
system.mem_ctrls.rdQLenPdf::17                      0                       # What read queue length does an incoming req see
system.mem_ctrls.rdQLenPdf::18                      0                       # What read queue length does an incoming req see
system.mem_ctrls.rdQLenPdf::19                      0                       # What read queue length does an incoming req see
system.mem_ctrls.rdQLenPdf::20                      0                       # What read queue length does an incoming req see
system.mem_ctrls.rdQLenPdf::21                      0                       # What read queue length does an incoming req see
system.mem_ctrls.rdQLenPdf::22                      0                       # What read queue length does an incoming req see
system.mem_ctrls.rdQLenPdf::23                      0                       # What read queue length does an incoming req see
system.mem_ctrls.rdQLenPdf::24                      0                       # What read queue length does an incoming req see
system.mem_ctrls.rdQLenPdf::25                      0                       # What read queue length does an incoming req see
system.mem_ctrls.rdQLenPdf::26                      0                       # What read queue length does an incoming req see
system.mem_ctrls.rdQLenPdf::27                      0                       # What read queue length does an incoming req see
system.mem_ctrls.rdQLenPdf::28                      0                       # What read queue length does an incoming req see
system.mem_ctrls.rdQLenPdf::29                      0                       # What read queue length does an incoming req see
system.mem_ctrls.rdQLenPdf::30                      0                       # What read queue length does an incoming req see
system.mem_ctrls.rdQLenPdf::31                      0                       # What read queue length does an incoming req see
system.mem_ctrls.wrQLenPdf::0                       0                       # What write queue length does an incoming req see
system.mem_ctrls.wrQLenPdf::1                       0                       # What write queue length does an incoming req see
system.mem_ctrls.wrQLenPdf::2                       0                       # What write queue length does an incoming req see
system.mem_ctrls.wrQLenPdf::3                       0                       # What write queue length does an incoming req see
system.mem_ctrls.wrQLenPdf::4                       0                       # What write queue length does an incoming req see
system.mem_ctrls.wrQLenPdf::5                       0                       # What write queue length does an incoming req see
system.mem_ctrls.wrQLenPdf::6                       0                       # What write queue length does an incoming req see
system.mem_ctrls.wrQLenPdf::7                       0                       # What write queue length does an incoming req see
system.mem_ctrls.wrQLenPdf::8                       0                       # What write queue length does an incoming req see
system.mem_ctrls.wrQLenPdf::9                       0                       # What write queue length does an incoming req see
system.mem_ctrls.wrQLenPdf::10                      0                       # What write queue length does an incoming req see
system.mem_ctrls.wrQLenPdf::11                      0                       # What write queue length does an incoming req see
system.mem_ctrls.wrQLenPdf::12                      0                       # What write queue length does an incoming req see
system.mem_ctrls.wrQLenPdf::13                      0                       # What write queue length does an incoming req see
system.mem_ctrls.wrQLenPdf::14                      0                       # What write queue length does an incoming req see
system.mem_ctrls.wrQLenPdf::15                      1                       # What write queue length does an incoming req see
system.mem_ctrls.wrQLenPdf::16                      1                       # What write queue length does an incoming req see
system.mem_ctrls.wrQLenPdf::17                     29                       # What write queue length does an incoming req see
system.mem_ctrls.wrQLenPdf::18                     29                       # What write queue length does an incoming req see
system.mem_ctrls.wrQLenPdf::19                     29                       # What write queue length does an incoming req see
system.mem_ctrls.wrQLenPdf::20                     29                       # What write queue length does an incoming req see
system.mem_ctrls.wrQLenPdf::21                     29                       # What write queue length does an incoming req see
system.mem_ctrls.wrQLenPdf::22                     29                       # What write queue length does an incoming req see
system.mem_ctrls.wrQLenPdf::23                     29                       # What write queue length does an incoming req see
system.mem_ctrls.wrQLenPdf::24                     29                       # What write queue length does an incoming req see
system.mem_ctrls.wrQLenPdf::25                     29                       # What write queue length does an incoming req see
system.mem_ctrls.wrQLenPdf::26                     29                       # What write queue length does an incoming req see
system.mem_ctrls.wrQLenPdf::27                     28                       # What write queue length does an incoming req see
system.mem_ctrls.wrQLenPdf::28                     28                       # What write queue length does an incoming req see
system.mem_ctrls.wrQLenPdf::29                     28                       # What write queue length does an incoming req see
system.mem_ctrls.wrQLenPdf::30                     28                       # What write queue length does an incoming req see
system.mem_ctrls.wrQLenPdf::31                     29                       # What write queue length does an incoming req see
system.mem_ctrls.wrQLenPdf::32                     29                       # What write queue length does an incoming req see
system.mem_ctrls.wrQLenPdf::33                      0                       # What write queue length does an incoming req see
system.mem_ctrls.wrQLenPdf::34                      0                       # What write queue length does an incoming req see
system.mem_ctrls.wrQLenPdf::35                      0                       # What write queue length does an incoming req see
system.mem_ctrls.wrQLenPdf::36                      0                       # What write queue length does an incoming req see
system.mem_ctrls.wrQLenPdf::37                      0                       # What write queue length does an incoming req see
system.mem_ctrls.wrQLenPdf::38                      0                       # What write queue length does an incoming req see
system.mem_ctrls.wrQLenPdf::39                      0                       # What write queue length does an incoming req see
system.mem_ctrls.wrQLenPdf::40                      0                       # What write queue length does an incoming req see
system.mem_ctrls.wrQLenPdf::41                      0                       # What write queue length does an incoming req see
system.mem_ctrls.wrQLenPdf::42                      0                       # What write queue length does an incoming req see
system.mem_ctrls.wrQLenPdf::43                      0                       # What write queue length does an incoming req see
system.mem_ctrls.wrQLenPdf::44                      0                       # What write queue length does an incoming req see
system.mem_ctrls.wrQLenPdf::45                      0                       # What write queue length does an incoming req see
system.mem_ctrls.wrQLenPdf::46                      0                       # What write queue length does an incoming req see
system.mem_ctrls.wrQLenPdf::47                      0                       # What write queue length does an incoming req see
system.mem_ctrls.wrQLenPdf::48                      0                       # What write queue length does an incoming req see
system.mem_ctrls.wrQLenPdf::49                      0                       # What write queue length does an incoming req see
system.mem_ctrls.wrQLenPdf::50                      0                       # What write queue length does an incoming req see
system.mem_ctrls.wrQLenPdf::51                      0                       # What write queue length does an incoming req see
system.mem_ctrls.wrQLenPdf::52                      0                       # What write queue length does an incoming req see
system.mem_ctrls.wrQLenPdf::53                      0                       # What write queue length does an incoming req see
system.mem_ctrls.wrQLenPdf::54                      0                       # What write queue length does an incoming req see
system.mem_ctrls.wrQLenPdf::55                      0                       # What write queue length does an incoming req see
system.mem_ctrls.wrQLenPdf::56                      0                       # What write queue length does an incoming req see
system.mem_ctrls.wrQLenPdf::57                      0                       # What write queue length does an incoming req see
system.mem_ctrls.wrQLenPdf::58                      0                       # What write queue length does an incoming req see
system.mem_ctrls.wrQLenPdf::59                      0                       # What write queue length does an incoming req see
system.mem_ctrls.wrQLenPdf::60                      0                       # What write queue length does an incoming req see
system.mem_ctrls.wrQLenPdf::61                      0                       # What write queue length does an incoming req see
system.mem_ctrls.wrQLenPdf::62                      0                       # What write queue length does an incoming req see
system.mem_ctrls.wrQLenPdf::63                      0                       # What write queue length does an incoming req see
system.mem_ctrls.bytesPerActivate::samples        96364                       # Bytes accessed per row activation
system.mem_ctrls.bytesPerActivate::mean    118.366527                       # Bytes accessed per row activation
system.mem_ctrls.bytesPerActivate::gmean   102.336746                       # Bytes accessed per row activation
system.mem_ctrls.bytesPerActivate::stdev    71.152044                       # Bytes accessed per row activation
system.mem_ctrls.bytesPerActivate::0-127        47963     49.77%     49.77% # Bytes accessed per row activation
system.mem_ctrls.bytesPerActivate::128-255        40062     41.57%     91.35% # Bytes accessed per row activation
system.mem_ctrls.bytesPerActivate::256-383         7380      7.66%     99.00% # Bytes accessed per row activation
system.mem_ctrls.bytesPerActivate::384-511          857      0.89%     99.89% # Bytes accessed per row activation
system.mem_ctrls.bytesPerActivate::512-639           73      0.08%     99.97% # Bytes accessed per row activation
system.mem_ctrls.bytesPerActivate::640-767           13      0.01%     99.98% # Bytes accessed per row activation
system.mem_ctrls.bytesPerActivate::768-895            8      0.01%     99.99% # Bytes accessed per row activation
system.mem_ctrls.bytesPerActivate::896-1023            6      0.01%    100.00% # Bytes accessed per row activation
system.mem_ctrls.bytesPerActivate::1024-1151            2      0.00%    100.00% # Bytes accessed per row activation
system.mem_ctrls.bytesPerActivate::total        96364                       # Bytes accessed per row activation
system.mem_ctrls.rdPerTurnAround::samples           29                       # Reads before turning the bus around for writes
system.mem_ctrls.rdPerTurnAround::mean    6224.413793                       # Reads before turning the bus around for writes
system.mem_ctrls.rdPerTurnAround::gmean   6033.332671                       # Reads before turning the bus around for writes
system.mem_ctrls.rdPerTurnAround::stdev   1564.968222                       # Reads before turning the bus around for writes
system.mem_ctrls.rdPerTurnAround::3072-3583            1      3.45%      3.45% # Reads before turning the bus around for writes
system.mem_ctrls.rdPerTurnAround::3584-4095            1      3.45%      6.90% # Reads before turning the bus around for writes
system.mem_ctrls.rdPerTurnAround::4096-4607            2      6.90%     13.79% # Reads before turning the bus around for writes
system.mem_ctrls.rdPerTurnAround::4608-5119            2      6.90%     20.69% # Reads before turning the bus around for writes
system.mem_ctrls.rdPerTurnAround::5120-5631            5     17.24%     37.93% # Reads before turning the bus around for writes
system.mem_ctrls.rdPerTurnAround::5632-6143            5     17.24%     55.17% # Reads before turning the bus around for writes
system.mem_ctrls.rdPerTurnAround::6144-6655            4     13.79%     68.97% # Reads before turning the bus around for writes
system.mem_ctrls.rdPerTurnAround::6656-7167            2      6.90%     75.86% # Reads before turning the bus around for writes
system.mem_ctrls.rdPerTurnAround::7168-7679            1      3.45%     79.31% # Reads before turning the bus around for writes
system.mem_ctrls.rdPerTurnAround::7680-8191            2      6.90%     86.21% # Reads before turning the bus around for writes
system.mem_ctrls.rdPerTurnAround::8192-8703            3     10.34%     96.55% # Reads before turning the bus around for writes
system.mem_ctrls.rdPerTurnAround::9728-10239            1      3.45%    100.00% # Reads before turning the bus around for writes
system.mem_ctrls.rdPerTurnAround::total            29                       # Reads before turning the bus around for writes
system.mem_ctrls.wrPerTurnAround::samples           29                       # Writes before turning the bus around for reads
system.mem_ctrls.wrPerTurnAround::mean      16.068966                       # Writes before turning the bus around for reads
system.mem_ctrls.wrPerTurnAround::gmean     16.065116                       # Writes before turning the bus around for reads
system.mem_ctrls.wrPerTurnAround::stdev      0.371391                       # Writes before turning the bus around for reads
system.mem_ctrls.wrPerTurnAround::16               28     96.55%     96.55% # Writes before turning the bus around for reads
system.mem_ctrls.wrPerTurnAround::18                1      3.45%    100.00% # Writes before turning the bus around for reads
system.mem_ctrls.wrPerTurnAround::total            29                       # Writes before turning the bus around for reads
system.mem_ctrls.totQLat                   4484170750                       # Total ticks spent queuing
system.mem_ctrls.totMemAccLat              7816983250                       # Total ticks spent from burst creation until serviced by the DRAM
system.mem_ctrls.totBusLat                  888750000                       # Total ticks spent in databus transfers
system.mem_ctrls.avgQLat                     25227.40                       # Average queueing delay per DRAM burst
system.mem_ctrls.avgBusLat                    5000.00                       # Average bus latency per DRAM burst
system.mem_ctrls.avgMemAccLat                43977.40                       # Average memory access latency per DRAM burst
system.mem_ctrls.avgRdBW                       745.12                       # Average DRAM read bandwidth in MiByte/s
system.mem_ctrls.avgWrBW                         1.95                       # Average achieved write bandwidth in MiByte/s
system.mem_ctrls.avgRdBWSys                    745.40                       # Average system read bandwidth in MiByte/s
system.mem_ctrls.avgWrBWSys                      1.94                       # Average system write bandwidth in MiByte/s
system.mem_ctrls.peakBW                      12800.00                       # Theoretical peak bandwidth in MiByte/s
system.mem_ctrls.busUtil                         5.84                       # Data bus utilization in percentage
system.mem_ctrls.busUtilRead                     5.82                       # Data bus utilization in percentage for reads
system.mem_ctrls.busUtilWrite                    0.02                       # Data bus utilization in percentage for writes
system.mem_ctrls.avgRdQLen                       1.29                       # Average read queue length when enqueuing
system.mem_ctrls.avgWrQLen                      25.44                       # Average write queue length when enqueuing
system.mem_ctrls.readRowHits                    81460                       # Number of row buffer hits during reads
system.mem_ctrls.writeRowHits                     396                       # Number of row buffer hits during writes
system.mem_ctrls.readRowHitRate                 45.83                       # Row buffer hit rate for reads
system.mem_ctrls.writeRowHitRate                85.71                       # Row buffer hit rate for writes
system.mem_ctrls.avgGap                      85636.76                       # Average gap between requests
system.mem_ctrls.pageHitRate                    45.93                       # Row buffer hit rate, read and write combined
system.mem_ctrls_0.actEnergy                339764040                       # Energy for activate commands per rank (pJ)
system.mem_ctrls_0.preEnergy                180573690                       # Energy for precharge commands per rank (pJ)
system.mem_ctrls_0.readEnergy               626292240                       # Energy for read commands per rank (pJ)
system.mem_ctrls_0.writeEnergy                  93960                       # Energy for write commands per rank (pJ)
system.mem_ctrls_0.refreshEnergy         1205923680.000000                       # Energy for refresh commands per rank (pJ)
system.mem_ctrls_0.actBackEnergy           1530178110                       # Energy for active background per rank (pJ)
system.mem_ctrls_0.preBackEnergy             24554400                       # Energy for precharge background per rank (pJ)
system.mem_ctrls_0.actPowerDownEnergy      5246893320                       # Energy for active power-down per rank (pJ)
system.mem_ctrls_0.prePowerDownEnergy       130419360                       # Energy for precharge power-down per rank (pJ)
system.mem_ctrls_0.selfRefreshEnergy     1528680.000000                       # Energy for self refresh per rank (pJ)
system.mem_ctrls_0.totalEnergy             9286221480                       # Total energy per rank (pJ)
system.mem_ctrls_0.averagePower            608.240792                       # Core power per rank (mW)
system.mem_ctrls_0.totalIdleTime          11847647250                       # Total Idle time Per DRAM Rank
system.mem_ctrls_0.memoryStateTime::IDLE     10140000                       # Time in different power states
system.mem_ctrls_0.memoryStateTime::REF     510138000                       # Time in different power states
system.mem_ctrls_0.memoryStateTime::SREF      1768750                       # Time in different power states
system.mem_ctrls_0.memoryStateTime::PRE_PDN    339790000                       # Time in different power states
system.mem_ctrls_0.memoryStateTime::ACT    2899401500                       # Time in different power states
system.mem_ctrls_0.memoryStateTime::ACT_PDN  11506105875                       # Time in different power states
system.mem_ctrls_1.actEnergy                348246360                       # Energy for activate commands per rank (pJ)
system.mem_ctrls_1.preEnergy                185127690                       # Energy for precharge commands per rank (pJ)
system.mem_ctrls_1.readEnergy               642842760                       # Energy for read commands per rank (pJ)
system.mem_ctrls_1.writeEnergy                2338560                       # Energy for write commands per rank (pJ)
system.mem_ctrls_1.refreshEnergy         1205923680.000000                       # Energy for refresh commands per rank (pJ)
system.mem_ctrls_1.actBackEnergy           1565570550                       # Energy for active background per rank (pJ)
system.mem_ctrls_1.preBackEnergy             24712320                       # Energy for precharge background per rank (pJ)
system.mem_ctrls_1.actPowerDownEnergy      5233592370                       # Energy for active power-down per rank (pJ)
system.mem_ctrls_1.prePowerDownEnergy       111568800                       # Energy for precharge power-down per rank (pJ)
system.mem_ctrls_1.selfRefreshEnergy          1047240                       # Energy for self refresh per rank (pJ)
system.mem_ctrls_1.totalEnergy             9320970330                       # Total energy per rank (pJ)
system.mem_ctrls_1.averagePower            610.516816                       # Core power per rank (mW)
system.mem_ctrls_1.totalIdleTime          11769805250                       # Total Idle time Per DRAM Rank
system.mem_ctrls_1.memoryStateTime::IDLE      9864000                       # Time in different power states
system.mem_ctrls_1.memoryStateTime::REF     510055375                       # Time in different power states
system.mem_ctrls_1.memoryStateTime::SREF      2061750                       # Time in different power states
system.mem_ctrls_1.memoryStateTime::PRE_PDN    290316250                       # Time in different power states
system.mem_ctrls_1.memoryStateTime::ACT    2977619500                       # Time in different power states
system.mem_ctrls_1.memoryStateTime::ACT_PDN  11477427250                       # Time in different power states
system.pwrStateResidencyTicks::UNDEFINED  15267344125                       # Cumulative time (in ticks) in various power states
system.cpu0.branchPred.lookups                2110825                       # Number of BP lookups
system.cpu0.branchPred.condPredicted          2110825                       # Number of conditional branches predicted
system.cpu0.branchPred.condIncorrect            96558                       # Number of conditional branches incorrect
system.cpu0.branchPred.BTBLookups             1606930                       # Number of BTB lookups
system.cpu0.branchPred.BTBHits                      0                       # Number of BTB hits
system.cpu0.branchPred.BTBCorrect                   0                       # Number of correct BTB predictions (this stat may not work properly.
system.cpu0.branchPred.BTBHitPct             0.000000                       # BTB Hit Percentage
system.cpu0.branchPred.usedRAS                  68615                       # Number of times the RAS was used to get a target.
system.cpu0.branchPred.RASInCorrect             11663                       # Number of incorrect RAS predictions.
system.cpu0.branchPred.indirectLookups        1606930                       # Number of indirect predictor lookups.
system.cpu0.branchPred.indirectHits            880319                       # Number of indirect target hits.
system.cpu0.branchPred.indirectMisses          726611                       # Number of indirect misses.
system.cpu0.branchPredindirectMispredicted        31362                       # Number of mispredicted indirect branches.
system.cpu_voltage_domain.voltage                   1                       # Voltage in Volts
system.cpu_clk_domain.clock                       500                       # Clock period in ticks
system.cpu0.dtb.walker.pwrStateResidencyTicks::UNDEFINED  15267344125                       # Cumulative time (in ticks) in various power states
system.cpu0.dtb.rdAccesses                    1024605                       # TLB accesses on read requests
system.cpu0.dtb.wrAccesses                      75606                       # TLB accesses on write requests
system.cpu0.dtb.rdMisses                       198950                       # TLB misses on read requests
system.cpu0.dtb.wrMisses                         1154                       # TLB misses on write requests
system.cpu0.apic_clk_domain.clock                8000                       # Clock period in ticks
system.cpu0.interrupts.pwrStateResidencyTicks::UNDEFINED  15267344125                       # Cumulative time (in ticks) in various power states
system.cpu0.itb.walker.pwrStateResidencyTicks::UNDEFINED  15267344125                       # Cumulative time (in ticks) in various power states
system.cpu0.itb.rdAccesses                          0                       # TLB accesses on read requests
system.cpu0.itb.wrAccesses                    1733286                       # TLB accesses on write requests
system.cpu0.itb.rdMisses                            0                       # TLB misses on read requests
system.cpu0.itb.wrMisses                        11904                       # TLB misses on write requests
system.cpu0.workload.numSyscalls                    0                       # Number of system calls
system.cpu0.pwrStateResidencyTicks::ON    15267344125                       # Cumulative time (in ticks) in various power states
system.cpu0.numCycles                        30534547                       # number of cpu cycles simulated
system.cpu0.numWorkItemsStarted                     0                       # number of work items this cpu started
system.cpu0.numWorkItemsCompleted                   0                       # number of work items this cpu completed
system.cpu0.fetch.icacheStallCycles           1772041                       # Number of cycles fetch is stalled on an Icache miss
system.cpu0.fetch.Insts                       6214550                       # Number of instructions fetch has processed
system.cpu0.fetch.Branches                    2110825                       # Number of branches that fetch encountered
system.cpu0.fetch.predictedBranches            948934                       # Number of branches that fetch has predicted taken
system.cpu0.fetch.Cycles                     28464412                       # Number of cycles fetch has run and was not squashing or blocked
system.cpu0.fetch.SquashCycles                 200926                       # Number of cycles fetch has spent squashing
system.cpu0.fetch.TlbCycles                      5232                       # Number of cycles fetch has spent waiting for tlb
system.cpu0.fetch.MiscStallCycles                2677                       # Number of cycles fetch has spent waiting on interrupts, or bad addresses, or out of MSHRs
system.cpu0.fetch.PendingTrapStallCycles        99596                       # Number of stall cycles due to pending traps
system.cpu0.fetch.CacheLines                  1721382                       # Number of cache lines fetched
system.cpu0.fetch.IcacheSquashes                12187                       # Number of outstanding Icache misses that were squashed
system.cpu0.fetch.ItlbSquashes                     13                       # Number of outstanding ITLB misses that were squashed
system.cpu0.fetch.rateDist::samples          30444421                       # Number of instructions fetched each cycle (Total)
system.cpu0.fetch.rateDist::mean             0.411312                       # Number of instructions fetched each cycle (Total)
system.cpu0.fetch.rateDist::stdev            1.606905                       # Number of instructions fetched each cycle (Total)
system.cpu0.fetch.rateDist::underflows              0      0.00%      0.00% # Number of instructions fetched each cycle (Total)
system.cpu0.fetch.rateDist::0                28053347     92.15%     92.15% # Number of instructions fetched each cycle (Total)
system.cpu0.fetch.rateDist::1                   28719      0.09%     92.24% # Number of instructions fetched each cycle (Total)
system.cpu0.fetch.rateDist::2                  836087      2.75%     94.99% # Number of instructions fetched each cycle (Total)
system.cpu0.fetch.rateDist::3                   38022      0.12%     95.11% # Number of instructions fetched each cycle (Total)
system.cpu0.fetch.rateDist::4                  167011      0.55%     95.66% # Number of instructions fetched each cycle (Total)
system.cpu0.fetch.rateDist::5                   93055      0.31%     95.97% # Number of instructions fetched each cycle (Total)
system.cpu0.fetch.rateDist::6                  109341      0.36%     96.32% # Number of instructions fetched each cycle (Total)
system.cpu0.fetch.rateDist::7                   32895      0.11%     96.43% # Number of instructions fetched each cycle (Total)
system.cpu0.fetch.rateDist::8                 1085944      3.57%    100.00% # Number of instructions fetched each cycle (Total)
system.cpu0.fetch.rateDist::overflows               0      0.00%    100.00% # Number of instructions fetched each cycle (Total)
system.cpu0.fetch.rateDist::min_value               0                       # Number of instructions fetched each cycle (Total)
system.cpu0.fetch.rateDist::max_value               8                       # Number of instructions fetched each cycle (Total)
system.cpu0.fetch.rateDist::total            30444421                       # Number of instructions fetched each cycle (Total)
system.cpu0.fetch.branchRate                 0.069129                       # Number of branch fetches per cycle
system.cpu0.fetch.rate                       0.203525                       # Number of inst fetches per cycle
system.cpu0.decode.IdleCycles                  923243                       # Number of cycles decode is idle
system.cpu0.decode.BlockedCycles             27826843                       # Number of cycles decode is blocked
system.cpu0.decode.RunCycles                  1200779                       # Number of cycles decode is running
system.cpu0.decode.UnblockCycles               393093                       # Number of cycles decode is unblocking
system.cpu0.decode.SquashCycles                100463                       # Number of cycles decode is squashing
system.cpu0.decode.DecodedInsts              10346336                       # Number of instructions handled by decode
system.cpu0.rename.SquashCycles                100463                       # Number of cycles rename is squashing
system.cpu0.rename.IdleCycles                 1053853                       # Number of cycles rename is idle
system.cpu0.rename.BlockCycles               26220401                       # Number of cycles rename is blocking
system.cpu0.rename.serializeStallCycles         17792                       # count of cycles rename stalled for serializing inst
system.cpu0.rename.RunCycles                  1370509                       # Number of cycles rename is running
system.cpu0.rename.UnblockCycles              1681403                       # Number of cycles rename is unblocking
system.cpu0.rename.RenamedInsts               9911299                       # Number of instructions processed by rename
system.cpu0.rename.ROBFullEvents               107610                       # Number of times rename has blocked due to ROB full
system.cpu0.rename.IQFullEvents               1259661                       # Number of times rename has blocked due to IQ full
system.cpu0.rename.LQFullEvents                373858                       # Number of times rename has blocked due to LQ full
system.cpu0.rename.SQFullEvents                   783                       # Number of times rename has blocked due to SQ full
system.cpu0.rename.RenamedOperands           11790293                       # Number of destination operands rename has renamed
system.cpu0.rename.RenameLookups             27454955                       # Number of register rename lookups that rename has made
system.cpu0.rename.int_rename_lookups        13082641                       # Number of integer rename lookups
system.cpu0.rename.fp_rename_lookups            55267                       # Number of floating rename lookups
system.cpu0.rename.CommittedMaps              4059338                       # Number of HB maps that are committed
system.cpu0.rename.UndoneMaps                 7730922                       # Number of HB maps that are undone due to squashing
system.cpu0.rename.serializingInsts               294                       # count of serializing insts renamed
system.cpu0.rename.tempSerializingInsts           353                       # count of temporary serializing insts renamed
system.cpu0.rename.skidInsts                  2472571                       # count of insts added to the skid buffer
system.cpu0.memDep0.insertedLoads             1779743                       # Number of loads inserted to the mem dependence unit.
system.cpu0.memDep0.insertedStores             109702                       # Number of stores inserted to the mem dependence unit.
system.cpu0.memDep0.conflictingLoads             4163                       # Number of conflicting loads.
system.cpu0.memDep0.conflictingStores            5341                       # Number of conflicting stores.
system.cpu0.iq.iqInstsAdded                   9379928                       # Number of instructions added to the IQ (excludes non-spec)
system.cpu0.iq.iqNonSpecInstsAdded               5963                       # Number of non-speculative instructions added to the IQ
system.cpu0.iq.iqInstsIssued                  6742258                       # Number of instructions issued
system.cpu0.iq.iqSquashedInstsIssued             8993                       # Number of squashed instructions issued
system.cpu0.iq.iqSquashedInstsExamined        5999589                       # Number of squashed instructions iterated over during squash; mainly for profiling
system.cpu0.iq.iqSquashedOperandsExamined     12179179                       # Number of squashed operands that are examined and possibly removed from graph
system.cpu0.iq.iqSquashedNonSpecRemoved          5963                       # Number of squashed non-spec instructions that were removed
system.cpu0.iq.issued_per_cycle::samples     30444421                       # Number of insts issued each cycle
system.cpu0.iq.issued_per_cycle::mean        0.221461                       # Number of insts issued each cycle
system.cpu0.iq.issued_per_cycle::stdev       0.862096                       # Number of insts issued each cycle
system.cpu0.iq.issued_per_cycle::underflows            0      0.00%      0.00% # Number of insts issued each cycle
system.cpu0.iq.issued_per_cycle::0           27754553     91.16%     91.16% # Number of insts issued each cycle
system.cpu0.iq.issued_per_cycle::1            1024297      3.36%     94.53% # Number of insts issued each cycle
system.cpu0.iq.issued_per_cycle::2             564661      1.85%     96.38% # Number of insts issued each cycle
system.cpu0.iq.issued_per_cycle::3             388785      1.28%     97.66% # Number of insts issued each cycle
system.cpu0.iq.issued_per_cycle::4             406073      1.33%     98.99% # Number of insts issued each cycle
system.cpu0.iq.issued_per_cycle::5             132719      0.44%     99.43% # Number of insts issued each cycle
system.cpu0.iq.issued_per_cycle::6             106641      0.35%     99.78% # Number of insts issued each cycle
system.cpu0.iq.issued_per_cycle::7              38985      0.13%     99.91% # Number of insts issued each cycle
system.cpu0.iq.issued_per_cycle::8              27707      0.09%    100.00% # Number of insts issued each cycle
system.cpu0.iq.issued_per_cycle::overflows            0      0.00%    100.00% # Number of insts issued each cycle
system.cpu0.iq.issued_per_cycle::min_value            0                       # Number of insts issued each cycle
system.cpu0.iq.issued_per_cycle::max_value            8                       # Number of insts issued each cycle
system.cpu0.iq.issued_per_cycle::total       30444421                       # Number of insts issued each cycle
system.cpu0.iq.fu_full::No_OpClass                  0      0.00%      0.00% # attempts to use FU when none available
system.cpu0.iq.fu_full::IntAlu                  15152     68.17%     68.17% # attempts to use FU when none available
system.cpu0.iq.fu_full::IntMult                     0      0.00%     68.17% # attempts to use FU when none available
system.cpu0.iq.fu_full::IntDiv                      0      0.00%     68.17% # attempts to use FU when none available
system.cpu0.iq.fu_full::FloatAdd                 1570      7.06%     75.24% # attempts to use FU when none available
system.cpu0.iq.fu_full::FloatCmp                    0      0.00%     75.24% # attempts to use FU when none available
system.cpu0.iq.fu_full::FloatCvt                    0      0.00%     75.24% # attempts to use FU when none available
system.cpu0.iq.fu_full::FloatMult                   0      0.00%     75.24% # attempts to use FU when none available
system.cpu0.iq.fu_full::FloatMultAcc                0      0.00%     75.24% # attempts to use FU when none available
system.cpu0.iq.fu_full::FloatDiv                    0      0.00%     75.24% # attempts to use FU when none available
system.cpu0.iq.fu_full::FloatMisc                   0      0.00%     75.24% # attempts to use FU when none available
system.cpu0.iq.fu_full::FloatSqrt                   0      0.00%     75.24% # attempts to use FU when none available
system.cpu0.iq.fu_full::SimdAdd                     0      0.00%     75.24% # attempts to use FU when none available
system.cpu0.iq.fu_full::SimdAddAcc                  0      0.00%     75.24% # attempts to use FU when none available
system.cpu0.iq.fu_full::SimdAlu                     0      0.00%     75.24% # attempts to use FU when none available
system.cpu0.iq.fu_full::SimdCmp                     0      0.00%     75.24% # attempts to use FU when none available
system.cpu0.iq.fu_full::SimdCvt                     0      0.00%     75.24% # attempts to use FU when none available
system.cpu0.iq.fu_full::SimdMisc                    0      0.00%     75.24% # attempts to use FU when none available
system.cpu0.iq.fu_full::SimdMult                    0      0.00%     75.24% # attempts to use FU when none available
system.cpu0.iq.fu_full::SimdMultAcc                 0      0.00%     75.24% # attempts to use FU when none available
system.cpu0.iq.fu_full::SimdShift                   0      0.00%     75.24% # attempts to use FU when none available
system.cpu0.iq.fu_full::SimdShiftAcc                0      0.00%     75.24% # attempts to use FU when none available
system.cpu0.iq.fu_full::SimdSqrt                    0      0.00%     75.24% # attempts to use FU when none available
system.cpu0.iq.fu_full::SimdFloatAdd                0      0.00%     75.24% # attempts to use FU when none available
system.cpu0.iq.fu_full::SimdFloatAlu                0      0.00%     75.24% # attempts to use FU when none available
system.cpu0.iq.fu_full::SimdFloatCmp                0      0.00%     75.24% # attempts to use FU when none available
system.cpu0.iq.fu_full::SimdFloatCvt                0      0.00%     75.24% # attempts to use FU when none available
system.cpu0.iq.fu_full::SimdFloatDiv                0      0.00%     75.24% # attempts to use FU when none available
system.cpu0.iq.fu_full::SimdFloatMisc               0      0.00%     75.24% # attempts to use FU when none available
system.cpu0.iq.fu_full::SimdFloatMult               0      0.00%     75.24% # attempts to use FU when none available
system.cpu0.iq.fu_full::SimdFloatMultAcc            0      0.00%     75.24% # attempts to use FU when none available
system.cpu0.iq.fu_full::SimdFloatSqrt               0      0.00%     75.24% # attempts to use FU when none available
system.cpu0.iq.fu_full::MemRead                  4964     22.33%     97.57% # attempts to use FU when none available
system.cpu0.iq.fu_full::MemWrite                  350      1.57%     99.15% # attempts to use FU when none available
system.cpu0.iq.fu_full::FloatMemRead              168      0.76%     99.90% # attempts to use FU when none available
system.cpu0.iq.fu_full::FloatMemWrite              22      0.10%    100.00% # attempts to use FU when none available
system.cpu0.iq.fu_full::IprAccess                   0      0.00%    100.00% # attempts to use FU when none available
system.cpu0.iq.fu_full::InstPrefetch                0      0.00%    100.00% # attempts to use FU when none available
system.cpu0.iq.FU_type_0::No_OpClass            28633      0.42%      0.42% # Type of FU issued
system.cpu0.iq.FU_type_0::IntAlu              5520932     81.89%     82.31% # Type of FU issued
system.cpu0.iq.FU_type_0::IntMult                1437      0.02%     82.33% # Type of FU issued
system.cpu0.iq.FU_type_0::IntDiv                13129      0.19%     82.53% # Type of FU issued
system.cpu0.iq.FU_type_0::FloatAdd              19728      0.29%     82.82% # Type of FU issued
system.cpu0.iq.FU_type_0::FloatCmp                  0      0.00%     82.82% # Type of FU issued
system.cpu0.iq.FU_type_0::FloatCvt                  0      0.00%     82.82% # Type of FU issued
system.cpu0.iq.FU_type_0::FloatMult                 0      0.00%     82.82% # Type of FU issued
system.cpu0.iq.FU_type_0::FloatMultAcc              0      0.00%     82.82% # Type of FU issued
system.cpu0.iq.FU_type_0::FloatDiv                  0      0.00%     82.82% # Type of FU issued
system.cpu0.iq.FU_type_0::FloatMisc                 0      0.00%     82.82% # Type of FU issued
system.cpu0.iq.FU_type_0::FloatSqrt                 0      0.00%     82.82% # Type of FU issued
system.cpu0.iq.FU_type_0::SimdAdd                   0      0.00%     82.82% # Type of FU issued
system.cpu0.iq.FU_type_0::SimdAddAcc                0      0.00%     82.82% # Type of FU issued
system.cpu0.iq.FU_type_0::SimdAlu                   0      0.00%     82.82% # Type of FU issued
system.cpu0.iq.FU_type_0::SimdCmp                   0      0.00%     82.82% # Type of FU issued
system.cpu0.iq.FU_type_0::SimdCvt                   0      0.00%     82.82% # Type of FU issued
system.cpu0.iq.FU_type_0::SimdMisc                  0      0.00%     82.82% # Type of FU issued
system.cpu0.iq.FU_type_0::SimdMult                  0      0.00%     82.82% # Type of FU issued
system.cpu0.iq.FU_type_0::SimdMultAcc               0      0.00%     82.82% # Type of FU issued
system.cpu0.iq.FU_type_0::SimdShift                 0      0.00%     82.82% # Type of FU issued
system.cpu0.iq.FU_type_0::SimdShiftAcc              0      0.00%     82.82% # Type of FU issued
system.cpu0.iq.FU_type_0::SimdSqrt                  0      0.00%     82.82% # Type of FU issued
system.cpu0.iq.FU_type_0::SimdFloatAdd              0      0.00%     82.82% # Type of FU issued
system.cpu0.iq.FU_type_0::SimdFloatAlu              0      0.00%     82.82% # Type of FU issued
system.cpu0.iq.FU_type_0::SimdFloatCmp              0      0.00%     82.82% # Type of FU issued
system.cpu0.iq.FU_type_0::SimdFloatCvt              0      0.00%     82.82% # Type of FU issued
system.cpu0.iq.FU_type_0::SimdFloatDiv              0      0.00%     82.82% # Type of FU issued
system.cpu0.iq.FU_type_0::SimdFloatMisc             0      0.00%     82.82% # Type of FU issued
system.cpu0.iq.FU_type_0::SimdFloatMult             0      0.00%     82.82% # Type of FU issued
system.cpu0.iq.FU_type_0::SimdFloatMultAcc            0      0.00%     82.82% # Type of FU issued
system.cpu0.iq.FU_type_0::SimdFloatSqrt             0      0.00%     82.82% # Type of FU issued
system.cpu0.iq.FU_type_0::MemRead             1073186     15.92%     98.74% # Type of FU issued
system.cpu0.iq.FU_type_0::MemWrite              81563      1.21%     99.95% # Type of FU issued
system.cpu0.iq.FU_type_0::FloatMemRead           3586      0.05%    100.00% # Type of FU issued
system.cpu0.iq.FU_type_0::FloatMemWrite            64      0.00%    100.00% # Type of FU issued
system.cpu0.iq.FU_type_0::IprAccess                 0      0.00%    100.00% # Type of FU issued
system.cpu0.iq.FU_type_0::InstPrefetch              0      0.00%    100.00% # Type of FU issued
system.cpu0.iq.FU_type_0::total               6742258                       # Type of FU issued
system.cpu0.iq.rate                          0.220808                       # Inst issue rate
system.cpu0.iq.fu_busy_cnt                      22226                       # FU busy when requested
system.cpu0.iq.fu_busy_rate                  0.003297                       # FU busy rate (busy events/executed inst)
system.cpu0.iq.int_inst_queue_reads          43911298                       # Number of integer instruction queue reads
system.cpu0.iq.int_inst_queue_writes         15337707                       # Number of integer instruction queue writes
system.cpu0.iq.int_inst_queue_wakeup_accesses      6439693                       # Number of integer instruction queue wakeup accesses
system.cpu0.iq.fp_inst_queue_reads              48858                       # Number of floating instruction queue reads
system.cpu0.iq.fp_inst_queue_writes             47776                       # Number of floating instruction queue writes
system.cpu0.iq.fp_inst_queue_wakeup_accesses        21312                       # Number of floating instruction queue wakeup accesses
system.cpu0.iq.vec_inst_queue_reads                 0                       # Number of vector instruction queue reads
system.cpu0.iq.vec_inst_queue_writes                0                       # Number of vector instruction queue writes
system.cpu0.iq.vec_inst_queue_wakeup_accesses            0                       # Number of vector instruction queue wakeup accesses
system.cpu0.iq.int_alu_accesses               6710705                       # Number of integer alu accesses
system.cpu0.iq.fp_alu_accesses                  25146                       # Number of floating point alu accesses
system.cpu0.iq.vec_alu_accesses                     0                       # Number of vector alu accesses
system.cpu0.iew.lsq.thread0.forwLoads            6692                       # Number of loads that had data forwarded from stores
system.cpu0.iew.lsq.thread0.invAddrLoads            0                       # Number of loads ignored due to an invalid address
system.cpu0.iew.lsq.thread0.squashedLoads      1143750                       # Number of loads squashed
system.cpu0.iew.lsq.thread0.ignoredResponses          273                       # Number of memory responses ignored because the instruction is squashed
system.cpu0.iew.lsq.thread0.memOrderViolation            4                       # Number of memory ordering violations
system.cpu0.iew.lsq.thread0.squashedStores        71622                       # Number of stores squashed
system.cpu0.iew.lsq.thread0.invAddrSwpfs            0                       # Number of software prefetches ignored due to an invalid address
system.cpu0.iew.lsq.thread0.blockedLoads            0                       # Number of blocked loads due to partial load-store forwarding
system.cpu0.iew.lsq.thread0.rescheduledLoads           66                       # Number of loads that were rescheduled
system.cpu0.iew.lsq.thread0.cacheBlocked         2283                       # Number of times an access to memory failed due to the cache being blocked
system.cpu0.iew.iewIdleCycles                       0                       # Number of cycles IEW is idle
system.cpu0.iew.iewSquashCycles                100463                       # Number of cycles IEW is squashing
system.cpu0.iew.iewBlockCycles               23684203                       # Number of cycles IEW is blocking
system.cpu0.iew.iewUnblockCycles               326188                       # Number of cycles IEW is unblocking
system.cpu0.iew.iewDispatchedInsts            9385891                       # Number of instructions dispatched to IQ
system.cpu0.iew.iewDispSquashedInsts             6868                       # Number of squashed instructions skipped by dispatch
system.cpu0.iew.iewDispLoadInsts              1779743                       # Number of dispatched load instructions
system.cpu0.iew.iewDispStoreInsts              109702                       # Number of dispatched store instructions
system.cpu0.iew.iewDispNonSpecInsts              2178                       # Number of dispatched non-speculative instructions
system.cpu0.iew.iewIQFullEvents                 24172                       # Number of times the IQ has become full, causing a stall
system.cpu0.iew.iewLSQFullEvents                90541                       # Number of times the LSQ has become full, causing a stall
system.cpu0.iew.memOrderViolationEvents             4                       # Number of memory order violations
system.cpu0.iew.predictedTakenIncorrect         52006                       # Number of branches that were predicted taken incorrectly
system.cpu0.iew.predictedNotTakenIncorrect        59422                       # Number of branches that were predicted not taken incorrectly
system.cpu0.iew.branchMispredicts              111428                       # Number of branch mispredicts detected at execute
system.cpu0.iew.iewExecutedInsts              6607077                       # Number of executed instructions
system.cpu0.iew.iewExecLoadInsts              1024233                       # Number of load instructions executed
system.cpu0.iew.iewExecSquashedInsts           135181                       # Number of squashed instructions skipped in execute
system.cpu0.iew.exec_swp                            0                       # number of swp insts executed
system.cpu0.iew.exec_nop                            0                       # number of nop insts executed
system.cpu0.iew.exec_refs                     1099818                       # number of memory reference insts executed
system.cpu0.iew.exec_branches                  781497                       # Number of branches executed
system.cpu0.iew.exec_stores                     75585                       # Number of stores executed
system.cpu0.iew.exec_rate                    0.216380                       # Inst execution rate
system.cpu0.iew.wb_sent                       6487770                       # cumulative count of insts sent to commit
system.cpu0.iew.wb_count                      6461005                       # cumulative count of insts written-back
system.cpu0.iew.wb_producers                  4798698                       # num instructions producing a value
system.cpu0.iew.wb_consumers                  7578958                       # num instructions consuming a value
system.cpu0.iew.wb_rate                      0.211597                       # insts written-back per cycle
system.cpu0.iew.wb_fanout                    0.633161                       # average fanout of values written-back
system.cpu0.commit.commitSquashedInsts        6000846                       # The number of squashed insts skipped by commit
system.cpu0.commit.branchMispredicts           100461                       # The number of times a branch was mispredicted
system.cpu0.commit.committed_per_cycle::samples     29581107                       # Number of insts commited each cycle
system.cpu0.commit.committed_per_cycle::mean     0.114474                       # Number of insts commited each cycle
system.cpu0.commit.committed_per_cycle::stdev     0.633178                       # Number of insts commited each cycle
system.cpu0.commit.committed_per_cycle::underflows            0      0.00%      0.00% # Number of insts commited each cycle
system.cpu0.commit.committed_per_cycle::0     28147688     95.15%     95.15% # Number of insts commited each cycle
system.cpu0.commit.committed_per_cycle::1       653073      2.21%     97.36% # Number of insts commited each cycle
system.cpu0.commit.committed_per_cycle::2       155349      0.53%     97.89% # Number of insts commited each cycle
system.cpu0.commit.committed_per_cycle::3       418241      1.41%     99.30% # Number of insts commited each cycle
system.cpu0.commit.committed_per_cycle::4        81068      0.27%     99.58% # Number of insts commited each cycle
system.cpu0.commit.committed_per_cycle::5        46956      0.16%     99.73% # Number of insts commited each cycle
system.cpu0.commit.committed_per_cycle::6         7775      0.03%     99.76% # Number of insts commited each cycle
system.cpu0.commit.committed_per_cycle::7         5576      0.02%     99.78% # Number of insts commited each cycle
system.cpu0.commit.committed_per_cycle::8        65381      0.22%    100.00% # Number of insts commited each cycle
system.cpu0.commit.committed_per_cycle::overflows            0      0.00%    100.00% # Number of insts commited each cycle
system.cpu0.commit.committed_per_cycle::min_value            0                       # Number of insts commited each cycle
system.cpu0.commit.committed_per_cycle::max_value            8                       # Number of insts commited each cycle
system.cpu0.commit.committed_per_cycle::total     29581107                       # Number of insts commited each cycle
system.cpu0.commit.committedInsts             1695216                       # Number of instructions committed
system.cpu0.commit.committedOps               3386276                       # Number of ops (including micro ops) committed
system.cpu0.commit.swp_count                        0                       # Number of s/w prefetches committed
system.cpu0.commit.refs                        674072                       # Number of memory references committed
system.cpu0.commit.loads                       635992                       # Number of loads committed
system.cpu0.commit.membars                          0                       # Number of memory barriers committed
system.cpu0.commit.branches                    604944                       # Number of branches committed
system.cpu0.commit.vec_insts                        0                       # Number of committed Vector instructions.
system.cpu0.commit.fp_insts                     15188                       # Number of committed floating point instructions.
system.cpu0.commit.int_insts                  3370954                       # Number of committed integer instructions.
system.cpu0.commit.function_calls                6700                       # Number of function calls committed.
system.cpu0.commit.op_class_0::No_OpClass         4542      0.13%      0.13% # Class of committed instruction
system.cpu0.commit.op_class_0::IntAlu         2683478     79.25%     79.38% # Class of committed instruction
system.cpu0.commit.op_class_0::IntMult            268      0.01%     79.39% # Class of committed instruction
system.cpu0.commit.op_class_0::IntDiv           10932      0.32%     79.71% # Class of committed instruction
system.cpu0.commit.op_class_0::FloatAdd         12984      0.38%     80.09% # Class of committed instruction
system.cpu0.commit.op_class_0::FloatCmp             0      0.00%     80.09% # Class of committed instruction
system.cpu0.commit.op_class_0::FloatCvt             0      0.00%     80.09% # Class of committed instruction
system.cpu0.commit.op_class_0::FloatMult            0      0.00%     80.09% # Class of committed instruction
system.cpu0.commit.op_class_0::FloatMultAcc            0      0.00%     80.09% # Class of committed instruction
system.cpu0.commit.op_class_0::FloatDiv             0      0.00%     80.09% # Class of committed instruction
system.cpu0.commit.op_class_0::FloatMisc            0      0.00%     80.09% # Class of committed instruction
system.cpu0.commit.op_class_0::FloatSqrt            0      0.00%     80.09% # Class of committed instruction
system.cpu0.commit.op_class_0::SimdAdd              0      0.00%     80.09% # Class of committed instruction
system.cpu0.commit.op_class_0::SimdAddAcc            0      0.00%     80.09% # Class of committed instruction
system.cpu0.commit.op_class_0::SimdAlu              0      0.00%     80.09% # Class of committed instruction
system.cpu0.commit.op_class_0::SimdCmp              0      0.00%     80.09% # Class of committed instruction
system.cpu0.commit.op_class_0::SimdCvt              0      0.00%     80.09% # Class of committed instruction
system.cpu0.commit.op_class_0::SimdMisc             0      0.00%     80.09% # Class of committed instruction
system.cpu0.commit.op_class_0::SimdMult             0      0.00%     80.09% # Class of committed instruction
system.cpu0.commit.op_class_0::SimdMultAcc            0      0.00%     80.09% # Class of committed instruction
system.cpu0.commit.op_class_0::SimdShift            0      0.00%     80.09% # Class of committed instruction
system.cpu0.commit.op_class_0::SimdShiftAcc            0      0.00%     80.09% # Class of committed instruction
system.cpu0.commit.op_class_0::SimdSqrt             0      0.00%     80.09% # Class of committed instruction
system.cpu0.commit.op_class_0::SimdFloatAdd            0      0.00%     80.09% # Class of committed instruction
system.cpu0.commit.op_class_0::SimdFloatAlu            0      0.00%     80.09% # Class of committed instruction
system.cpu0.commit.op_class_0::SimdFloatCmp            0      0.00%     80.09% # Class of committed instruction
system.cpu0.commit.op_class_0::SimdFloatCvt            0      0.00%     80.09% # Class of committed instruction
system.cpu0.commit.op_class_0::SimdFloatDiv            0      0.00%     80.09% # Class of committed instruction
system.cpu0.commit.op_class_0::SimdFloatMisc            0      0.00%     80.09% # Class of committed instruction
system.cpu0.commit.op_class_0::SimdFloatMult            0      0.00%     80.09% # Class of committed instruction
system.cpu0.commit.op_class_0::SimdFloatMultAcc            0      0.00%     80.09% # Class of committed instruction
system.cpu0.commit.op_class_0::SimdFloatSqrt            0      0.00%     80.09% # Class of committed instruction
system.cpu0.commit.op_class_0::MemRead         633788     18.72%     98.81% # Class of committed instruction
system.cpu0.commit.op_class_0::MemWrite         38080      1.12%     99.93% # Class of committed instruction
system.cpu0.commit.op_class_0::FloatMemRead         2204      0.07%    100.00% # Class of committed instruction
system.cpu0.commit.op_class_0::FloatMemWrite            0      0.00%    100.00% # Class of committed instruction
system.cpu0.commit.op_class_0::IprAccess            0      0.00%    100.00% # Class of committed instruction
system.cpu0.commit.op_class_0::InstPrefetch            0      0.00%    100.00% # Class of committed instruction
system.cpu0.commit.op_class_0::total          3386276                       # Class of committed instruction
system.cpu0.commit.bw_lim_events                65381                       # number cycles where commit BW limit reached
system.cpu0.rob.rob_reads                    38902848                       # The number of ROB reads
system.cpu0.rob.rob_writes                   19639910                       # The number of ROB writes
system.cpu0.timesIdled                            806                       # Number of times that the entire CPU went into an idle state and unscheduled itself
system.cpu0.idleCycles                          90126                       # Total number of cycles that the CPU has spent unscheduled due to idling
system.cpu0.committedInsts                    1695216                       # Number of Instructions Simulated
system.cpu0.committedOps                      3386276                       # Number of Ops (including micro ops) Simulated
system.cpu0.cpi                             18.012187                       # CPI: Cycles Per Instruction
system.cpu0.cpi_total                       18.012187                       # CPI: Total CPI of All Threads
system.cpu0.ipc                              0.055518                       # IPC: Instructions Per Cycle
system.cpu0.ipc_total                        0.055518                       # IPC: Total IPC of All Threads
system.cpu0.int_regfile_reads                 6693160                       # number of integer regfile reads
system.cpu0.int_regfile_writes                5610931                       # number of integer regfile writes
system.cpu0.fp_regfile_reads                    38029                       # number of floating regfile reads
system.cpu0.fp_regfile_writes                   18964                       # number of floating regfile writes
system.cpu0.cc_regfile_reads                  4079196                       # number of cc regfile reads
system.cpu0.cc_regfile_writes                 1777037                       # number of cc regfile writes
system.cpu0.misc_regfile_reads                3457418                       # number of misc regfile reads
system.cpu0.dcache.tags.pwrStateResidencyTicks::UNDEFINED  15267344125                       # Cumulative time (in ticks) in various power states
system.cpu0.dcache.tags.replacements           327488                       # number of replacements
system.cpu0.dcache.tags.tagsinuse                1024                       # Cycle average of tags in use
system.cpu0.dcache.tags.total_refs             470572                       # Total number of references to valid blocks.
system.cpu0.dcache.tags.sampled_refs           327488                       # Sample count of references to valid blocks.
system.cpu0.dcache.tags.avg_refs             1.436914                       # Average number of references to valid blocks.
system.cpu0.dcache.tags.warmup_cycle                0                       # Cycle when the warmup percentage was hit.
system.cpu0.dcache.tags.occ_blocks::cpu0.data         1024                       # Average occupied blocks per requestor
system.cpu0.dcache.tags.occ_percent::cpu0.data            1                       # Average percentage of cache occupancy
system.cpu0.dcache.tags.occ_percent::total            1                       # Average percentage of cache occupancy
system.cpu0.dcache.tags.occ_task_id_blocks::1024         1024                       # Occupied blocks per task id
system.cpu0.dcache.tags.age_task_id_blocks_1024::0          147                       # Occupied blocks per task id
system.cpu0.dcache.tags.age_task_id_blocks_1024::1          865                       # Occupied blocks per task id
system.cpu0.dcache.tags.age_task_id_blocks_1024::2           12                       # Occupied blocks per task id
system.cpu0.dcache.tags.occ_task_id_percent::1024            1                       # Percentage of cache occupancy per task id
system.cpu0.dcache.tags.tag_accesses          4524672                       # Number of tag accesses
system.cpu0.dcache.tags.data_accesses         4524672                       # Number of data accesses
system.cpu0.dcache.pwrStateResidencyTicks::UNDEFINED  15267344125                       # Cumulative time (in ticks) in various power states
system.cpu0.dcache.ReadReq_hits::cpu0.data       437323                       # number of ReadReq hits
system.cpu0.dcache.ReadReq_hits::total         437323                       # number of ReadReq hits
system.cpu0.dcache.WriteReq_hits::cpu0.data        36753                       # number of WriteReq hits
system.cpu0.dcache.WriteReq_hits::total         36753                       # number of WriteReq hits
system.cpu0.dcache.demand_hits::cpu0.data       474076                       # number of demand (read+write) hits
system.cpu0.dcache.demand_hits::total          474076                       # number of demand (read+write) hits
system.cpu0.dcache.overall_hits::cpu0.data       474076                       # number of overall hits
system.cpu0.dcache.overall_hits::total         474076                       # number of overall hits
system.cpu0.dcache.ReadReq_misses::cpu0.data       573893                       # number of ReadReq misses
system.cpu0.dcache.ReadReq_misses::total       573893                       # number of ReadReq misses
system.cpu0.dcache.WriteReq_misses::cpu0.data         1327                       # number of WriteReq misses
system.cpu0.dcache.WriteReq_misses::total         1327                       # number of WriteReq misses
system.cpu0.dcache.demand_misses::cpu0.data       575220                       # number of demand (read+write) misses
system.cpu0.dcache.demand_misses::total        575220                       # number of demand (read+write) misses
system.cpu0.dcache.overall_misses::cpu0.data       575220                       # number of overall misses
system.cpu0.dcache.overall_misses::total       575220                       # number of overall misses
system.cpu0.dcache.ReadReq_miss_latency::cpu0.data  34518116000                       # number of ReadReq miss cycles
system.cpu0.dcache.ReadReq_miss_latency::total  34518116000                       # number of ReadReq miss cycles
system.cpu0.dcache.WriteReq_miss_latency::cpu0.data     50798999                       # number of WriteReq miss cycles
system.cpu0.dcache.WriteReq_miss_latency::total     50798999                       # number of WriteReq miss cycles
system.cpu0.dcache.demand_miss_latency::cpu0.data  34568914999                       # number of demand (read+write) miss cycles
system.cpu0.dcache.demand_miss_latency::total  34568914999                       # number of demand (read+write) miss cycles
system.cpu0.dcache.overall_miss_latency::cpu0.data  34568914999                       # number of overall miss cycles
system.cpu0.dcache.overall_miss_latency::total  34568914999                       # number of overall miss cycles
system.cpu0.dcache.ReadReq_accesses::cpu0.data      1011216                       # number of ReadReq accesses(hits+misses)
system.cpu0.dcache.ReadReq_accesses::total      1011216                       # number of ReadReq accesses(hits+misses)
system.cpu0.dcache.WriteReq_accesses::cpu0.data        38080                       # number of WriteReq accesses(hits+misses)
system.cpu0.dcache.WriteReq_accesses::total        38080                       # number of WriteReq accesses(hits+misses)
system.cpu0.dcache.demand_accesses::cpu0.data      1049296                       # number of demand (read+write) accesses
system.cpu0.dcache.demand_accesses::total      1049296                       # number of demand (read+write) accesses
system.cpu0.dcache.overall_accesses::cpu0.data      1049296                       # number of overall (read+write) accesses
system.cpu0.dcache.overall_accesses::total      1049296                       # number of overall (read+write) accesses
system.cpu0.dcache.ReadReq_miss_rate::cpu0.data     0.567528                       # miss rate for ReadReq accesses
system.cpu0.dcache.ReadReq_miss_rate::total     0.567528                       # miss rate for ReadReq accesses
system.cpu0.dcache.WriteReq_miss_rate::cpu0.data     0.034848                       # miss rate for WriteReq accesses
system.cpu0.dcache.WriteReq_miss_rate::total     0.034848                       # miss rate for WriteReq accesses
[...]
system.l2.ReadExReq_miss_rate::cpu0.data     0.272589                       # miss rate for ReadExReq accesses
system.l2.ReadExReq_miss_rate::total         0.272589                       # miss rate for ReadExReq accesses
system.l2.ReadCleanReq_miss_rate::cpu0.inst            1                       # miss rate for ReadCleanReq accesses
system.l2.ReadCleanReq_miss_rate::total             1                       # miss rate for ReadCleanReq accesses
system.l2.ReadSharedReq_miss_rate::cpu0.data     0.544064                       # miss rate for ReadSharedReq accesses
system.l2.ReadSharedReq_miss_rate::total     0.544064                       # miss rate for ReadSharedReq accesses
system.l2.demand_miss_rate::cpu0.inst               1                       # miss rate for demand accesses
system.l2.demand_miss_rate::cpu0.data        0.542973                       # miss rate for demand accesses
system.l2.demand_miss_rate::total            0.542974                       # miss rate for demand accesses
system.l2.overall_miss_rate::cpu0.inst              1                       # miss rate for overall accesses
system.l2.overall_miss_rate::cpu0.data       0.542973                       # miss rate for overall accesses
system.l2.overall_miss_rate::total           0.542974                       # miss rate for overall accesses
system.l2.ReadExReq_avg_miss_latency::cpu0.data 101318.941504                       # average ReadExReq miss latency
system.l2.ReadExReq_avg_miss_latency::total 101318.941504                       # average ReadExReq miss latency
system.l2.ReadCleanReq_avg_miss_latency::cpu0.inst       108500                       # average ReadCleanReq miss latency
system.l2.ReadCleanReq_avg_miss_latency::total       108500                       # average ReadCleanReq miss latency
system.l2.ReadSharedReq_avg_miss_latency::cpu0.data 95518.767821                       # average ReadSharedReq miss latency
system.l2.ReadSharedReq_avg_miss_latency::total 95518.767821                       # average ReadSharedReq miss latency
system.l2.demand_avg_miss_latency::cpu0.inst       108500                       # average overall miss latency
system.l2.demand_avg_miss_latency::cpu0.data 95530.477963                       # average overall miss latency
system.l2.demand_avg_miss_latency::total 95530.550900                       # average overall miss latency
system.l2.overall_avg_miss_latency::cpu0.inst       108500                       # average overall miss latency
system.l2.overall_avg_miss_latency::cpu0.data 95530.477963                       # average overall miss latency
system.l2.overall_avg_miss_latency::total 95530.550900                       # average overall miss latency
system.l2.blocked_cycles::no_mshrs                  0                       # number of cycles access was blocked
system.l2.blocked_cycles::no_targets                0                       # number of cycles access was blocked
system.l2.blocked::no_mshrs                         0                       # number of cycles access was blocked
system.l2.blocked::no_targets                       0                       # number of cycles access was blocked
system.l2.avg_blocked_cycles::no_mshrs            nan                       # average number of cycles each access was blocked
system.l2.avg_blocked_cycles::no_targets          nan                       # average number of cycles each access was blocked
system.l2.writebacks::writebacks                  462                       # number of writebacks
system.l2.writebacks::total                       462                       # number of writebacks
system.l2.ReadExReq_mshr_misses::cpu0.data          359                       # number of ReadExReq MSHR misses
system.l2.ReadExReq_mshr_misses::total            359                       # number of ReadExReq MSHR misses
system.l2.ReadCleanReq_mshr_misses::cpu0.inst            1                       # number of ReadCleanReq MSHR misses
system.l2.ReadCleanReq_mshr_misses::total            1                       # number of ReadCleanReq MSHR misses
system.l2.ReadSharedReq_mshr_misses::cpu0.data       177458                       # number of ReadSharedReq MSHR misses
system.l2.ReadSharedReq_mshr_misses::total       177458                       # number of ReadSharedReq MSHR misses
system.l2.demand_mshr_misses::cpu0.inst             1                       # number of demand (read+write) MSHR misses
system.l2.demand_mshr_misses::cpu0.data        177817                       # number of demand (read+write) MSHR misses
system.l2.demand_mshr_misses::total            177818                       # number of demand (read+write) MSHR misses
system.l2.overall_mshr_misses::cpu0.inst            1                       # number of overall MSHR misses
system.l2.overall_mshr_misses::cpu0.data       177817                       # number of overall MSHR misses
system.l2.overall_mshr_misses::total           177818                       # number of overall MSHR misses
system.l2.ReadExReq_mshr_miss_latency::cpu0.data     32783500                       # number of ReadExReq MSHR miss cycles
system.l2.ReadExReq_mshr_miss_latency::total     32783500                       # number of ReadExReq MSHR miss cycles
system.l2.ReadCleanReq_mshr_miss_latency::cpu0.inst        98500                       # number of ReadCleanReq MSHR miss cycles
system.l2.ReadCleanReq_mshr_miss_latency::total        98500                       # number of ReadCleanReq MSHR miss cycles
system.l2.ReadSharedReq_mshr_miss_latency::cpu0.data  15175989500                       # number of ReadSharedReq MSHR miss cycles
system.l2.ReadSharedReq_mshr_miss_latency::total  15175989500                       # number of ReadSharedReq MSHR miss cycles
system.l2.demand_mshr_miss_latency::cpu0.inst        98500                       # number of demand (read+write) MSHR miss cycles
system.l2.demand_mshr_miss_latency::cpu0.data  15208773000                       # number of demand (read+write) MSHR miss cycles
system.l2.demand_mshr_miss_latency::total  15208871500                       # number of demand (read+write) MSHR miss cycles
system.l2.overall_mshr_miss_latency::cpu0.inst        98500                       # number of overall MSHR miss cycles
system.l2.overall_mshr_miss_latency::cpu0.data  15208773000                       # number of overall MSHR miss cycles
system.l2.overall_mshr_miss_latency::total  15208871500                       # number of overall MSHR miss cycles
system.l2.ReadExReq_mshr_miss_rate::cpu0.data     0.272589                       # mshr miss rate for ReadExReq accesses
system.l2.ReadExReq_mshr_miss_rate::total     0.272589                       # mshr miss rate for ReadExReq accesses
system.l2.ReadCleanReq_mshr_miss_rate::cpu0.inst            1                       # mshr miss rate for ReadCleanReq accesses
system.l2.ReadCleanReq_mshr_miss_rate::total            1                       # mshr miss rate for ReadCleanReq accesses
system.l2.ReadSharedReq_mshr_miss_rate::cpu0.data     0.544064                       # mshr miss rate for ReadSharedReq accesses
system.l2.ReadSharedReq_mshr_miss_rate::total     0.544064                       # mshr miss rate for ReadSharedReq accesses
system.l2.demand_mshr_miss_rate::cpu0.inst            1                       # mshr miss rate for demand accesses
system.l2.demand_mshr_miss_rate::cpu0.data     0.542973                       # mshr miss rate for demand accesses
system.l2.demand_mshr_miss_rate::total       0.542974                       # mshr miss rate for demand accesses
system.l2.overall_mshr_miss_rate::cpu0.inst            1                       # mshr miss rate for overall accesses
system.l2.overall_mshr_miss_rate::cpu0.data     0.542973                       # mshr miss rate for overall accesses
system.l2.overall_mshr_miss_rate::total      0.542974                       # mshr miss rate for overall accesses
system.l2.ReadExReq_avg_mshr_miss_latency::cpu0.data 91318.941504                       # average ReadExReq mshr miss latency
system.l2.ReadExReq_avg_mshr_miss_latency::total 91318.941504                       # average ReadExReq mshr miss latency
system.l2.ReadCleanReq_avg_mshr_miss_latency::cpu0.inst        98500                       # average ReadCleanReq mshr miss latency
system.l2.ReadCleanReq_avg_mshr_miss_latency::total        98500                       # average ReadCleanReq mshr miss latency
system.l2.ReadSharedReq_avg_mshr_miss_latency::cpu0.data 85518.767821                       # average ReadSharedReq mshr miss latency
system.l2.ReadSharedReq_avg_mshr_miss_latency::total 85518.767821                       # average ReadSharedReq mshr miss latency
system.l2.demand_avg_mshr_miss_latency::cpu0.inst        98500                       # average overall mshr miss latency
system.l2.demand_avg_mshr_miss_latency::cpu0.data 85530.477963                       # average overall mshr miss latency
system.l2.demand_avg_mshr_miss_latency::total 85530.550900                       # average overall mshr miss latency
system.l2.overall_avg_mshr_miss_latency::cpu0.inst        98500                       # average overall mshr miss latency
system.l2.overall_avg_mshr_miss_latency::cpu0.data 85530.477963                       # average overall mshr miss latency
system.l2.overall_avg_mshr_miss_latency::total 85530.550900                       # average overall mshr miss latency
system.membus.snoop_filter.tot_requests        355636                       # Total number of requests made to the snoop filter.
system.membus.snoop_filter.hit_single_requests       177819                       # Number of requests hitting in the snoop filter with a single holder of the requested data.
system.membus.snoop_filter.hit_multi_requests            0                       # Number of requests hitting in the snoop filter with multiple (>1) holders of the requested data.
system.membus.snoop_filter.tot_snoops               0                       # Total number of snoops made to the snoop filter.
system.membus.snoop_filter.hit_single_snoops            0                       # Number of snoops hitting in the snoop filter with a single holder of the requested data.
system.membus.snoop_filter.hit_multi_snoops            0                       # Number of snoops hitting in the snoop filter with multiple (>1) holders of the requested data.
system.membus.pwrStateResidencyTicks::UNDEFINED  15267344125                       # Cumulative time (in ticks) in various power states
system.membus.trans_dist::ReadResp             177459                       # Transaction distribution
system.membus.trans_dist::WritebackDirty          462                       # Transaction distribution
system.membus.trans_dist::CleanEvict           177356                       # Transaction distribution
system.membus.trans_dist::ReadExReq               359                       # Transaction distribution
system.membus.trans_dist::ReadExResp              359                       # Transaction distribution
system.membus.trans_dist::ReadSharedReq        177459                       # Transaction distribution
system.membus.pkt_count_system.l2.mem_side::system.mem_ctrls.port       533454                       # Packet count per connected master and slave (bytes)
system.membus.pkt_count_system.l2.mem_side::total       533454                       # Packet count per connected master and slave (bytes)
system.membus.pkt_count::total                 533454                       # Packet count per connected master and slave (bytes)
system.membus.pkt_size_system.l2.mem_side::system.mem_ctrls.port     11409920                       # Cumulative packet size per connected master and slave (bytes)
system.membus.pkt_size_system.l2.mem_side::total     11409920                       # Cumulative packet size per connected master and slave (bytes)
system.membus.pkt_size::total                11409920                       # Cumulative packet size per connected master and slave (bytes)
system.membus.snoops                                0                       # Total snoops (count)
system.membus.snoopTraffic                          0                       # Total snoop traffic (bytes)
system.membus.snoop_fanout::samples            177818                       # Request fanout histogram
system.membus.snoop_fanout::mean                    0                       # Request fanout histogram
system.membus.snoop_fanout::stdev                   0                       # Request fanout histogram
system.membus.snoop_fanout::underflows              0      0.00%      0.00% # Request fanout histogram
system.membus.snoop_fanout::0                  177818    100.00%    100.00% # Request fanout histogram
system.membus.snoop_fanout::1                       0      0.00%    100.00% # Request fanout histogram
system.membus.snoop_fanout::overflows               0      0.00%    100.00% # Request fanout histogram
system.membus.snoop_fanout::min_value               0                       # Request fanout histogram
system.membus.snoop_fanout::max_value               0                       # Request fanout histogram
system.membus.snoop_fanout::total              177818                       # Request fanout histogram
system.membus.reqLayer8.occupancy           416820500                       # Layer occupancy (ticks)
system.membus.reqLayer8.utilization               2.7                       # Layer utilization (%)
system.membus.respLayer1.occupancy          965148500                       # Layer occupancy (ticks)
system.membus.respLayer1.utilization              6.3                       # Layer utilization (%)
system.tol2bus.snoop_filter.tot_requests       654978                       # Total number of requests made to the snoop filter.
system.tol2bus.snoop_filter.hit_single_requests       327490                       # Number of requests hitting in the snoop filter with a single holder of the requested data.
system.tol2bus.snoop_filter.hit_multi_requests          425                       # Number of requests hitting in the snoop filter with multiple (>1) holders of the requested data.
system.tol2bus.snoop_filter.tot_snoops              1                       # Total number of snoops made to the snoop filter.
system.tol2bus.snoop_filter.hit_single_snoops            1                       # Number of snoops hitting in the snoop filter with a single holder of the requested data.
system.tol2bus.snoop_filter.hit_multi_snoops            0                       # Number of snoops hitting in the snoop filter with multiple (>1) holders of the requested data.
system.tol2bus.pwrStateResidencyTicks::UNDEFINED  15267344125                       # Cumulative time (in ticks) in various power states
system.tol2bus.trans_dist::ReadResp            326172                       # Transaction distribution
system.tol2bus.trans_dist::WritebackDirty         4099                       # Transaction distribution
system.tol2bus.trans_dist::WritebackClean            1                       # Transaction distribution
system.tol2bus.trans_dist::CleanEvict          501208                       # Transaction distribution
system.tol2bus.trans_dist::ReadExReq             1317                       # Transaction distribution
system.tol2bus.trans_dist::ReadExResp            1317                       # Transaction distribution
system.tol2bus.trans_dist::ReadCleanReq             1                       # Transaction distribution
system.tol2bus.trans_dist::ReadSharedReq       326171                       # Transaction distribution
system.tol2bus.pkt_count_system.cpu0.icache.mem_side::system.l2.cpu_side            3                       # Packet count per connected master and slave (bytes)
system.tol2bus.pkt_count_system.cpu0.dcache.mem_side::system.l2.cpu_side       982464                       # Packet count per connected master and slave (bytes)
system.tol2bus.pkt_count::total                982467                       # Packet count per connected master and slave (bytes)
system.tol2bus.pkt_size_system.cpu0.icache.mem_side::system.l2.cpu_side          128                       # Cumulative packet size per connected master and slave (bytes)
system.tol2bus.pkt_size_system.cpu0.dcache.mem_side::system.l2.cpu_side     21192000                       # Cumulative packet size per connected master and slave (bytes)
system.tol2bus.pkt_size::total               21192128                       # Cumulative packet size per connected master and slave (bytes)
system.tol2bus.snoops                          177819                       # Total snoops (count)
system.tol2bus.snoopTraffic                     29568                       # Total snoop traffic (bytes)
system.tol2bus.snoop_fanout::samples           505308                       # Request fanout histogram
system.tol2bus.snoop_fanout::mean            0.000845                       # Request fanout histogram
system.tol2bus.snoop_fanout::stdev           0.029057                       # Request fanout histogram
system.tol2bus.snoop_fanout::underflows             0      0.00%      0.00% # Request fanout histogram
system.tol2bus.snoop_fanout::0                 504881     99.92%     99.92% # Request fanout histogram
system.tol2bus.snoop_fanout::1                    427      0.08%    100.00% # Request fanout histogram
system.tol2bus.snoop_fanout::2                      0      0.00%    100.00% # Request fanout histogram
system.tol2bus.snoop_fanout::3                      0      0.00%    100.00% # Request fanout histogram
system.tol2bus.snoop_fanout::4                      0      0.00%    100.00% # Request fanout histogram
system.tol2bus.snoop_fanout::5                      0      0.00%    100.00% # Request fanout histogram
system.tol2bus.snoop_fanout::6                      0      0.00%    100.00% # Request fanout histogram
system.tol2bus.snoop_fanout::7                      0      0.00%    100.00% # Request fanout histogram
system.tol2bus.snoop_fanout::8                      0      0.00%    100.00% # Request fanout histogram
system.tol2bus.snoop_fanout::9                      0      0.00%    100.00% # Request fanout histogram
system.tol2bus.snoop_fanout::10                     0      0.00%    100.00% # Request fanout histogram
system.tol2bus.snoop_fanout::11                     0      0.00%    100.00% # Request fanout histogram
system.tol2bus.snoop_fanout::12                     0      0.00%    100.00% # Request fanout histogram
system.tol2bus.snoop_fanout::13                     0      0.00%    100.00% # Request fanout histogram
system.tol2bus.snoop_fanout::14                     0      0.00%    100.00% # Request fanout histogram
system.tol2bus.snoop_fanout::15                     0      0.00%    100.00% # Request fanout histogram
system.tol2bus.snoop_fanout::16                     0      0.00%    100.00% # Request fanout histogram
system.tol2bus.snoop_fanout::overflows              0      0.00%    100.00% # Request fanout histogram
system.tol2bus.snoop_fanout::min_value              0                       # Request fanout histogram
system.tol2bus.snoop_fanout::max_value              1                       # Request fanout histogram
system.tol2bus.snoop_fanout::total             505308                       # Request fanout histogram
system.tol2bus.reqLayer0.occupancy          331127000                       # Layer occupancy (ticks)
system.tol2bus.reqLayer0.utilization              2.2                       # Layer utilization (%)
system.tol2bus.respLayer0.occupancy              1500                       # Layer occupancy (ticks)
system.tol2bus.respLayer0.utilization             0.0                       # Layer utilization (%)
system.tol2bus.respLayer1.occupancy         491232000                       # Layer occupancy (ticks)
system.tol2bus.respLayer1.utilization             3.2                       # Layer utilization (%)

---------- End Simulation Statistics   ----------
