
---------- Begin Simulation Statistics ----------
sim_seconds                                  0.015267                       # Number of seconds simulated
sim_ticks                                 15267344125                       # Number of ticks simulated
final_tick                               2366438339375                       # Number of ticks from beginning of simulation (restored from checkpoints and never reset)
sim_freq                                 1000000000000                       # Frequency of simulated ticks
host_inst_rate                               20715359                       # Simulator instruction rate (inst/s)
host_op_rate                                 38015330                       # Simulator op (including micro ops) rate (op/s)
host_tick_rate                               61292408                       # Simulator tick rate (ticks/s)
host_mem_usage                                2332684                       # Number of bytes of host memory used
host_seconds                                   249.09                       # Real time elapsed on the host
sim_insts                                  5159994537                       # Number of instructions simulated
sim_ops                                    9469249612                       # Number of ops (including micro ops) simulated
system.voltage_domain.voltage                       1                       # Voltage in Volts
system.clk_domain.clock                          1000                       # Clock period in ticks
system.mem_ctrls.pwrStateResidencyTicks::UNDEFINED  15267344125                       # Cumulative time (in ticks) in various power states
system.mem_ctrls.bytes_read::cpu0.inst             64                       # Number of bytes read from this memory
system.mem_ctrls.bytes_read::cpu0.data        1025344                       # Number of bytes read from this memory
system.mem_ctrls.bytes_read::total            1025408                       # Number of bytes read from this memory
system.mem_ctrls.bytes_inst_read::cpu0.inst           64                       # Number of instructions bytes read from this memory
system.mem_ctrls.bytes_inst_read::total            64                       # Number of instructions bytes read from this memory
system.mem_ctrls.bytes_written::writebacks       928256                       # Number of bytes written to this memory
system.mem_ctrls.bytes_written::total          928256                       # Number of bytes written to this memory
system.mem_ctrls.num_reads::cpu0.inst               1                       # Number of read requests responded to by this memory
system.mem_ctrls.num_reads::cpu0.data           16021                       # Number of read requests responded to by this memory
system.mem_ctrls.num_reads::total               16022                       # Number of read requests responded to by this memory
system.mem_ctrls.num_writes::writebacks         14504                       # Number of write requests responded to by this memory
system.mem_ctrls.num_writes::total              14504                       # Number of write requests responded to by this memory
system.mem_ctrls.bw_read::cpu0.inst              4192                       # Total read bandwidth from this memory (bytes/s)
system.mem_ctrls.bw_read::cpu0.data          67159291                       # Total read bandwidth from this memory (bytes/s)
system.mem_ctrls.bw_read::total              67163483                       # Total read bandwidth from this memory (bytes/s)
system.mem_ctrls.bw_inst_read::cpu0.inst         4192                       # Instruction read bandwidth from this memory (bytes/s)
system.mem_ctrls.bw_inst_read::total             4192                       # Instruction read bandwidth from this memory (bytes/s)
system.mem_ctrls.bw_write::writebacks        60800097                       # Write bandwidth from this memory (bytes/s)
system.mem_ctrls.bw_write::total             60800097                       # Write bandwidth from this memory (bytes/s)
system.mem_ctrls.bw_total::writebacks        60800097                       # Total bandwidth to/from this memory (bytes/s)
system.mem_ctrls.bw_total::cpu0.inst             4192                       # Total bandwidth to/from this memory (bytes/s)
system.mem_ctrls.bw_total::cpu0.data         67159291                       # Total bandwidth to/from this memory (bytes/s)
system.mem_ctrls.bw_total::total            127963579                       # Total bandwidth to/from this memory (bytes/s)
system.mem_ctrls.readReqs                       16022                       # Number of read requests accepted
system.mem_ctrls.writeReqs                      14504                       # Number of write requests accepted
system.mem_ctrls.readBursts                     16022                       # Number of DRAM read bursts, including those serviced by the write queue
system.mem_ctrls.writeBursts                    14504                       # Number of DRAM write bursts, including those merged in the write queue
system.mem_ctrls.bytesReadDRAM                1025152                       # Total number of bytes read from DRAM
system.mem_ctrls.bytesReadWrQ                     256                       # Total number of bytes read from write queue
system.mem_ctrls.bytesWritten                  927616                       # Total number of bytes written to DRAM
system.mem_ctrls.bytesReadSys                 1025408                       # Total read bytes from the system interface side
system.mem_ctrls.bytesWrittenSys               928256                       # Total written bytes from the system interface side
system.mem_ctrls.servicedByWrQ                      4                       # Number of DRAM read bursts serviced by the write queue
system.mem_ctrls.mergedWrBursts                     0                       # Number of DRAM write bursts merged with an existing one
system.mem_ctrls.neitherReadNorWriteReqs            0                       # Number of requests that are neither read nor write
system.mem_ctrls.perBankRdBursts::0               966                       # Per bank write bursts
system.mem_ctrls.perBankRdBursts::1              1001                       # Per bank write bursts
system.mem_ctrls.perBankRdBursts::2              1001                       # Per bank write bursts
system.mem_ctrls.perBankRdBursts::3               977                       # Per bank write bursts
system.mem_ctrls.perBankRdBursts::4               932                       # Per bank write bursts
system.mem_ctrls.perBankRdBursts::5               979                       # Per bank write bursts
system.mem_ctrls.perBankRdBursts::6               996                       # Per bank write bursts
system.mem_ctrls.perBankRdBursts::7               933                       # Per bank write bursts
system.mem_ctrls.perBankRdBursts::8              1007                       # Per bank write bursts
system.mem_ctrls.perBankRdBursts::9               966                       # Per bank write bursts
system.mem_ctrls.perBankRdBursts::10              966                       # Per bank write bursts
system.mem_ctrls.perBankRdBursts::11              936                       # Per bank write bursts
system.mem_ctrls.perBankRdBursts::12              986                       # Per bank write bursts
system.mem_ctrls.perBankRdBursts::13             1121                       # Per bank write bursts
system.mem_ctrls.perBankRdBursts::14             1116                       # Per bank write bursts
system.mem_ctrls.perBankRdBursts::15             1135                       # Per bank write bursts
system.mem_ctrls.perBankWrBursts::0               877                       # Per bank write bursts
system.mem_ctrls.perBankWrBursts::1               895                       # Per bank write bursts
system.mem_ctrls.perBankWrBursts::2               908                       # Per bank write bursts
system.mem_ctrls.perBankWrBursts::3               875                       # Per bank write bursts
system.mem_ctrls.perBankWrBursts::4               839                       # Per bank write bursts
system.mem_ctrls.perBankWrBursts::5               895                       # Per bank write bursts
system.mem_ctrls.perBankWrBursts::6               901                       # Per bank write bursts
system.mem_ctrls.perBankWrBursts::7               846                       # Per bank write bursts
system.mem_ctrls.perBankWrBursts::8               913                       # Per bank write bursts
system.mem_ctrls.perBankWrBursts::9               854                       # Per bank write bursts
system.mem_ctrls.perBankWrBursts::10              881                       # Per bank write bursts
system.mem_ctrls.perBankWrBursts::11              830                       # Per bank write bursts
system.mem_ctrls.perBankWrBursts::12              909                       # Per bank write bursts
system.mem_ctrls.perBankWrBursts::13             1026                       # Per bank write bursts
system.mem_ctrls.perBankWrBursts::14             1028                       # Per bank write bursts
system.mem_ctrls.perBankWrBursts::15             1017                       # Per bank write bursts
system.mem_ctrls.numRdRetry                         0                       # Number of times read queue was full causing retry
system.mem_ctrls.numWrRetry                         0                       # Number of times write queue was full causing retry
system.mem_ctrls.totGap                   15267578000                       # Total gap between requests
system.mem_ctrls.readPktSize::0                     0                       # Read request sizes (log2)
system.mem_ctrls.readPktSize::1                     0                       # Read request sizes (log2)
system.mem_ctrls.readPktSize::2                     0                       # Read request sizes (log2)
system.mem_ctrls.readPktSize::3                     0                       # Read request sizes (log2)
system.mem_ctrls.readPktSize::4                     0                       # Read request sizes (log2)
system.mem_ctrls.readPktSize::5                     0                       # Read request sizes (log2)
system.mem_ctrls.readPktSize::6                 16022                       # Read request sizes (log2)
system.mem_ctrls.writePktSize::0                    0                       # Write request sizes (log2)
system.mem_ctrls.writePktSize::1                    0                       # Write request sizes (log2)
system.mem_ctrls.writePktSize::2                    0                       # Write request sizes (log2)
system.mem_ctrls.writePktSize::3                    0                       # Write request sizes (log2)
system.mem_ctrls.writePktSize::4                    0                       # Write request sizes (log2)
system.mem_ctrls.writePktSize::5                    0                       # Write request sizes (log2)
system.mem_ctrls.writePktSize::6                14504                       # Write request sizes (log2)
system.mem_ctrls.rdQLenPdf::0                   14904                       # What read queue length does an incoming req see
system.mem_ctrls.rdQLenPdf::1                    1102                       # What read queue length does an incoming req see
system.mem_ctrls.rdQLenPdf::2                      12                       # What read queue length does an incoming req see
system.mem_ctrls.rdQLenPdf::3                       0                       # What read queue length does an incoming req see
system.mem_ctrls.rdQLenPdf::4                       0                       # What read queue length does an incoming req see
system.mem_ctrls.rdQLenPdf::5                       0                       # What read queue length does an incoming req see
system.mem_ctrls.rdQLenPdf::6                       0                       # What read queue length does an incoming req see
system.mem_ctrls.rdQLenPdf::7                       0                       # What read queue length does an incoming req see
system.mem_ctrls.rdQLenPdf::8                       0                       # What read queue length does an incoming req see
system.mem_ctrls.rdQLenPdf::9                       0                       # What read queue length does an incoming req see
system.mem_ctrls.rdQLenPdf::10                      0                       # What read queue length does an incoming req see
system.mem_ctrls.rdQLenPdf::11                      0                       # What read queue length does an incoming req see
system.mem_ctrls.rdQLenPdf::12                      0                       # What read queue length does an incoming req see
system.mem_ctrls.rdQLenPdf::13                      0                       # What read queue length does an incoming req see
system.mem_ctrls.rdQLenPdf::14                      0                       # What read queue length does an incoming req see
system.mem_ctrls.rdQLenPdf::15                      0                       # What read queue length does an incoming req see
system.mem_ctrls.rdQLenPdf::16                      0                       # What read queue length does an incoming req see
system.mem_ctrls.rdQLenPdf::17                      0                       # What read queue length does an incoming req see
system.mem_ctrls.rdQLenPdf::18                      0                       # What read queue length does an incoming req see
system.mem_ctrls.rdQLenPdf::19                      0                       # What read queue length does an incoming req see
system.mem_ctrls.rdQLenPdf::20                      0                       # What read queue length does an incoming req see
system.mem_ctrls.rdQLenPdf::21                      0                       # What read queue length does an incoming req see
system.mem_ctrls.rdQLenPdf::22                      0                       # What read queue length does an incoming req see
system.mem_ctrls.rdQLenPdf::23                      0                       # What read queue length does an incoming req see
system.mem_ctrls.rdQLenPdf::24                      0                       # What read queue length does an incoming req see
system.mem_ctrls.rdQLenPdf::25                      0                       # What read queue length does an incoming req see
system.mem_ctrls.rdQLenPdf::26                      0                       # What read queue length does an incoming req see
system.mem_ctrls.rdQLenPdf::27                      0                       # What read queue length does an incoming req see
system.mem_ctrls.rdQLenPdf::28                      0                       # What read queue length does an incoming req see
system.mem_ctrls.rdQLenPdf::29                      0                       # What read queue length does an incoming req see
system.mem_ctrls.rdQLenPdf::30                      0                       # What read queue length does an incoming req see
system.mem_ctrls.rdQLenPdf::31                      0                       # What read queue length does an incoming req see
system.mem_ctrls.wrQLenPdf::0                       0                       # What write queue length does an incoming req see
system.mem_ctrls.wrQLenPdf::1                       0                       # What write queue length does an incoming req see
system.mem_ctrls.wrQLenPdf::2                       0                       # What write queue length does an incoming req see
system.mem_ctrls.wrQLenPdf::3                       0                       # What write queue length does an incoming req see
system.mem_ctrls.wrQLenPdf::4                       0                       # What write queue length does an incoming req see
system.mem_ctrls.wrQLenPdf::5                       0                       # What write queue length does an incoming req see
system.mem_ctrls.wrQLenPdf::6                       0                       # What write queue length does an incoming req see
system.mem_ctrls.wrQLenPdf::7                       0                       # What write queue length does an incoming req see
system.mem_ctrls.wrQLenPdf::8                       0                       # What write queue length does an incoming req see
system.mem_ctrls.wrQLenPdf::9                       0                       # What write queue length does an incoming req see
system.mem_ctrls.wrQLenPdf::10                      0                       # What write queue length does an incoming req see
system.mem_ctrls.wrQLenPdf::11                      0                       # What write queue length does an incoming req see
system.mem_ctrls.wrQLenPdf::12                      0                       # What write queue length does an incoming req see
system.mem_ctrls.wrQLenPdf::13                      0                       # What write queue length does an incoming req see
system.mem_ctrls.wrQLenPdf::14                      0                       # What write queue length does an incoming req see
system.mem_ctrls.wrQLenPdf::15                    486                       # What write queue length does an incoming req see
system.mem_ctrls.wrQLenPdf::16                    514                       # What write queue length does an incoming req see
system.mem_ctrls.wrQLenPdf::17                    822                       # What write queue length does an incoming req see
system.mem_ctrls.wrQLenPdf::18                    842                       # What write queue length does an incoming req see
system.mem_ctrls.wrQLenPdf::19                    842                       # What write queue length does an incoming req see
system.mem_ctrls.wrQLenPdf::20                    842                       # What write queue length does an incoming req see
system.mem_ctrls.wrQLenPdf::21                    842                       # What write queue length does an incoming req see
system.mem_ctrls.wrQLenPdf::22                    843                       # What write queue length does an incoming req see
system.mem_ctrls.wrQLenPdf::23                    843                       # What write queue length does an incoming req see
system.mem_ctrls.wrQLenPdf::24                    844                       # What write queue length does an incoming req see
system.mem_ctrls.wrQLenPdf::25                    845                       # What write queue length does an incoming req see
system.mem_ctrls.wrQLenPdf::26                    842                       # What write queue length does an incoming req see
system.mem_ctrls.wrQLenPdf::27                    845                       # What write queue length does an incoming req see
system.mem_ctrls.wrQLenPdf::28                    845                       # What write queue length does an incoming req see
system.mem_ctrls.wrQLenPdf::29                    845                       # What write queue length does an incoming req see
system.mem_ctrls.wrQLenPdf::30                    874                       # What write queue length does an incoming req see
system.mem_ctrls.wrQLenPdf::31                    846                       # What write queue length does an incoming req see
system.mem_ctrls.wrQLenPdf::32                    842                       # What write queue length does an incoming req see
system.mem_ctrls.wrQLenPdf::33                      0                       # What write queue length does an incoming req see
system.mem_ctrls.wrQLenPdf::34                      0                       # What write queue length does an incoming req see
system.mem_ctrls.wrQLenPdf::35                      0                       # What write queue length does an incoming req see
system.mem_ctrls.wrQLenPdf::36                      0                       # What write queue length does an incoming req see
system.mem_ctrls.wrQLenPdf::37                      0                       # What write queue length does an incoming req see
system.mem_ctrls.wrQLenPdf::38                      0                       # What write queue length does an incoming req see
system.mem_ctrls.wrQLenPdf::39                      0                       # What write queue length does an incoming req see
system.mem_ctrls.wrQLenPdf::40                      0                       # What write queue length does an incoming req see
system.mem_ctrls.wrQLenPdf::41                      0                       # What write queue length does an incoming req see
system.mem_ctrls.wrQLenPdf::42                      0                       # What write queue length does an incoming req see
system.mem_ctrls.wrQLenPdf::43                      0                       # What write queue length does an incoming req see
system.mem_ctrls.wrQLenPdf::44                      0                       # What write queue length does an incoming req see
system.mem_ctrls.wrQLenPdf::45                      0                       # What write queue length does an incoming req see
system.mem_ctrls.wrQLenPdf::46                      0                       # What write queue length does an incoming req see
system.mem_ctrls.wrQLenPdf::47                      0                       # What write queue length does an incoming req see
system.mem_ctrls.wrQLenPdf::48                      0                       # What write queue length does an incoming req see
system.mem_ctrls.wrQLenPdf::49                      0                       # What write queue length does an incoming req see
system.mem_ctrls.wrQLenPdf::50                      0                       # What write queue length does an incoming req see
system.mem_ctrls.wrQLenPdf::51                      0                       # What write queue length does an incoming req see
system.mem_ctrls.wrQLenPdf::52                      0                       # What write queue length does an incoming req see
system.mem_ctrls.wrQLenPdf::53                      0                       # What write queue length does an incoming req see
system.mem_ctrls.wrQLenPdf::54                      0                       # What write queue length does an incoming req see
system.mem_ctrls.wrQLenPdf::55                      0                       # What write queue length does an incoming req see
system.mem_ctrls.wrQLenPdf::56                      0                       # What write queue length does an incoming req see
system.mem_ctrls.wrQLenPdf::57                      0                       # What write queue length does an incoming req see
system.mem_ctrls.wrQLenPdf::58                      0                       # What write queue length does an incoming req see
system.mem_ctrls.wrQLenPdf::59                      0                       # What write queue length does an incoming req see
system.mem_ctrls.wrQLenPdf::60                      0                       # What write queue length does an incoming req see
system.mem_ctrls.wrQLenPdf::61                      0                       # What write queue length does an incoming req see
system.mem_ctrls.wrQLenPdf::62                      0                       # What write queue length does an incoming req see
system.mem_ctrls.wrQLenPdf::63                      0                       # What write queue length does an incoming req see
system.mem_ctrls.bytesPerActivate::samples        21970                       # Bytes accessed per row activation
system.mem_ctrls.bytesPerActivate::mean     88.877560                       # Bytes accessed per row activation
system.mem_ctrls.bytesPerActivate::gmean    80.340564                       # Bytes accessed per row activation
system.mem_ctrls.bytesPerActivate::stdev    50.392948                       # Bytes accessed per row activation
system.mem_ctrls.bytesPerActivate::64-127        16138     73.45%     73.45% # Bytes accessed per row activation
system.mem_ctrls.bytesPerActivate::128-191         4123     18.77%     92.22% # Bytes accessed per row activation
system.mem_ctrls.bytesPerActivate::192-255         1032      4.70%     96.92% # Bytes accessed per row activation
system.mem_ctrls.bytesPerActivate::256-319          473      2.15%     99.07% # Bytes accessed per row activation
system.mem_ctrls.bytesPerActivate::320-383          125      0.57%     99.64% # Bytes accessed per row activation
system.mem_ctrls.bytesPerActivate::384-447           52      0.24%     99.88% # Bytes accessed per row activation
system.mem_ctrls.bytesPerActivate::448-511           17      0.08%     99.95% # Bytes accessed per row activation
system.mem_ctrls.bytesPerActivate::512-575            8      0.04%     99.99% # Bytes accessed per row activation
system.mem_ctrls.bytesPerActivate::576-639            2      0.01%    100.00% # Bytes accessed per row activation
system.mem_ctrls.bytesPerActivate::total        21970                       # Bytes accessed per row activation
system.mem_ctrls.rdPerTurnAround::samples          841                       # Reads before turning the bus around for writes
system.mem_ctrls.rdPerTurnAround::mean      19.035672                       # Reads before turning the bus around for writes
system.mem_ctrls.rdPerTurnAround::gmean     18.953413                       # Reads before turning the bus around for writes
system.mem_ctrls.rdPerTurnAround::stdev      1.773123                       # Reads before turning the bus around for writes
system.mem_ctrls.rdPerTurnAround::15                7      0.83%      0.83% # Reads before turning the bus around for writes
system.mem_ctrls.rdPerTurnAround::16               61      7.25%      8.09% # Reads before turning the bus around for writes
system.mem_ctrls.rdPerTurnAround::17              100     11.89%     19.98% # Reads before turning the bus around for writes
system.mem_ctrls.rdPerTurnAround::18              157     18.67%     38.64% # Reads before turning the bus around for writes
system.mem_ctrls.rdPerTurnAround::19              188     22.35%     61.00% # Reads before turning the bus around for writes
system.mem_ctrls.rdPerTurnAround::20              156     18.55%     79.55% # Reads before turning the bus around for writes
system.mem_ctrls.rdPerTurnAround::21              108     12.84%     92.39% # Reads before turning the bus around for writes
system.mem_ctrls.rdPerTurnAround::22               40      4.76%     97.15% # Reads before turning the bus around for writes
system.mem_ctrls.rdPerTurnAround::23               15      1.78%     98.93% # Reads before turning the bus around for writes
system.mem_ctrls.rdPerTurnAround::24                8      0.95%     99.88% # Reads before turning the bus around for writes
system.mem_ctrls.rdPerTurnAround::25                1      0.12%    100.00% # Reads before turning the bus around for writes
system.mem_ctrls.rdPerTurnAround::total           841                       # Reads before turning the bus around for writes
system.mem_ctrls.wrPerTurnAround::samples          841                       # Writes before turning the bus around for reads
system.mem_ctrls.wrPerTurnAround::mean      17.234245                       # Writes before turning the bus around for reads
system.mem_ctrls.wrPerTurnAround::gmean     17.203938                       # Writes before turning the bus around for reads
system.mem_ctrls.wrPerTurnAround::stdev      1.017030                       # Writes before turning the bus around for reads
system.mem_ctrls.wrPerTurnAround::16              325     38.64%     38.64% # Writes before turning the bus around for reads
system.mem_ctrls.wrPerTurnAround::17               27      3.21%     41.85% # Writes before turning the bus around for reads
system.mem_ctrls.wrPerTurnAround::18              457     54.34%     96.20% # Writes before turning the bus around for reads
system.mem_ctrls.wrPerTurnAround::19               31      3.69%     99.88% # Writes before turning the bus around for reads
system.mem_ctrls.wrPerTurnAround::20                1      0.12%    100.00% # Writes before turning the bus around for reads
system.mem_ctrls.wrPerTurnAround::total           841                       # Writes before turning the bus around for reads
system.mem_ctrls.totQLat                    468292250                       # Total ticks spent queuing
system.mem_ctrls.totMemAccLat               768629750                       # Total ticks spent from burst creation until serviced by the DRAM
system.mem_ctrls.totBusLat                   80090000                       # Total ticks spent in databus transfers
system.mem_ctrls.avgQLat                     29235.38                       # Average queueing delay per DRAM burst
system.mem_ctrls.avgBusLat                    5000.00                       # Average bus latency per DRAM burst
system.mem_ctrls.avgMemAccLat                47985.38                       # Average memory access latency per DRAM burst
system.mem_ctrls.avgRdBW                        67.15                       # Average DRAM read bandwidth in MiByte/s
system.mem_ctrls.avgWrBW                        60.76                       # Average achieved write bandwidth in MiByte/s
system.mem_ctrls.avgRdBWSys                     67.16                       # Average system read bandwidth in MiByte/s
system.mem_ctrls.avgWrBWSys                     60.80                       # Average system write bandwidth in MiByte/s
system.mem_ctrls.peakBW                      12800.00                       # Theoretical peak bandwidth in MiByte/s
system.mem_ctrls.busUtil                         1.00                       # Data bus utilization in percentage
system.mem_ctrls.busUtilRead                     0.52                       # Data bus utilization in percentage for reads
system.mem_ctrls.busUtilWrite                    0.47                       # Data bus utilization in percentage for writes
system.mem_ctrls.avgRdQLen                       1.11                       # Average read queue length when enqueuing
system.mem_ctrls.avgWrQLen                      25.02                       # Average write queue length when enqueuing
system.mem_ctrls.readRowHits                     5434                       # Number of row buffer hits during reads
system.mem_ctrls.writeRowHits                    3107                       # Number of row buffer hits during writes
system.mem_ctrls.readRowHitRate                 33.92                       # Row buffer hit rate for reads
system.mem_ctrls.writeRowHitRate                21.42                       # Row buffer hit rate for writes
system.mem_ctrls.avgGap                     500149.97                       # Average gap between requests
system.mem_ctrls.pageHitRate                    27.98                       # Row buffer hit rate, read and write combined
system.mem_ctrls_0.actEnergy                 75691140                       # Energy for activate commands per rank (pJ)
system.mem_ctrls_0.preEnergy                 40230795                       # Energy for precharge commands per rank (pJ)
system.mem_ctrls_0.readEnergy                55584900                       # Energy for read commands per rank (pJ)
system.mem_ctrls_0.writeEnergy               36727920                       # Energy for write commands per rank (pJ)
system.mem_ctrls_0.refreshEnergy         1224977520.000000                       # Energy for refresh commands per rank (pJ)
system.mem_ctrls_0.actBackEnergy            976353000                       # Energy for active background per rank (pJ)
system.mem_ctrls_0.preBackEnergy             33120000                       # Energy for precharge background per rank (pJ)
system.mem_ctrls_0.actPowerDownEnergy      4284654660                       # Energy for active power-down per rank (pJ)
system.mem_ctrls_0.prePowerDownEnergy      1307054880                       # Energy for precharge power-down per rank (pJ)
system.mem_ctrls_0.selfRefreshEnergy         95154120                       # Energy for self refresh per rank (pJ)
system.mem_ctrls_0.totalEnergy             8129967225                       # Total energy per rank (pJ)
system.mem_ctrls_0.averagePower            532.506974                       # Core power per rank (mW)
system.mem_ctrls_0.totalIdleTime          13038534500                       # Total Idle time Per DRAM Rank
system.mem_ctrls_0.memoryStateTime::IDLE     28902000                       # Time in different power states
system.mem_ctrls_0.memoryStateTime::REF     518630000                       # Time in different power states
system.mem_ctrls_0.memoryStateTime::SREF    239077250                       # Time in different power states
system.mem_ctrls_0.memoryStateTime::PRE_PDN   3404094250                       # Time in different power states
system.mem_ctrls_0.memoryStateTime::ACT    1680469250                       # Time in different power states
system.mem_ctrls_0.memoryStateTime::ACT_PDN   9396171375                       # Time in different power states
system.mem_ctrls_1.actEnergy                 81181800                       # Energy for activate commands per rank (pJ)
system.mem_ctrls_1.preEnergy                 43145355                       # Energy for precharge commands per rank (pJ)
system.mem_ctrls_1.readEnergy                58783620                       # Energy for read commands per rank (pJ)
system.mem_ctrls_1.writeEnergy               38930760                       # Energy for write commands per rank (pJ)
system.mem_ctrls_1.refreshEnergy         1221904320.000000                       # Energy for refresh commands per rank (pJ)
system.mem_ctrls_1.actBackEnergy            962130360                       # Energy for active background per rank (pJ)
system.mem_ctrls_1.preBackEnergy             32270400                       # Energy for precharge background per rank (pJ)
system.mem_ctrls_1.actPowerDownEnergy      4346356590                       # Energy for active power-down per rank (pJ)
system.mem_ctrls_1.prePowerDownEnergy      1281749280                       # Energy for precharge power-down per rank (pJ)
system.mem_ctrls_1.selfRefreshEnergy         80989620                       # Energy for self refresh per rank (pJ)
system.mem_ctrls_1.totalEnergy             8147699205                       # Total energy per rank (pJ)
system.mem_ctrls_1.averagePower            533.668406                       # Core power per rank (mW)
system.mem_ctrls_1.totalIdleTime          13072142750                       # Total Idle time Per DRAM Rank
system.mem_ctrls_1.memoryStateTime::IDLE     26729250                       # Time in different power states
system.mem_ctrls_1.memoryStateTime::REF     517240000                       # Time in different power states
system.mem_ctrls_1.memoryStateTime::SREF    203432500                       # Time in different power states
system.mem_ctrls_1.memoryStateTime::PRE_PDN   3337549000                       # Time in different power states
system.mem_ctrls_1.memoryStateTime::ACT    1650930500                       # Time in different power states
system.mem_ctrls_1.memoryStateTime::ACT_PDN   9531462875                       # Time in different power states
system.pwrStateResidencyTicks::UNDEFINED  15267344125                       # Cumulative time (in ticks) in various power states
system.cpu0.branchPred.lookups               13333930                       # Number of BP lookups
system.cpu0.branchPred.condPredicted         13333930                       # Number of conditional branches predicted
system.cpu0.branchPred.condIncorrect          1418440                       # Number of conditional branches incorrect
system.cpu0.branchPred.BTBLookups            11230898                       # Number of BTB lookups
system.cpu0.branchPred.BTBHits                      0                       # Number of BTB hits
system.cpu0.branchPred.BTBCorrect                   0                       # Number of correct BTB predictions (this stat may not work properly.
system.cpu0.branchPred.BTBHitPct             0.000000                       # BTB Hit Percentage
system.cpu0.branchPred.usedRAS                1054643                       # Number of times the RAS was used to get a target.
system.cpu0.branchPred.RASInCorrect            190530                       # Number of incorrect RAS predictions.
system.cpu0.branchPred.indirectLookups       11230898                       # Number of indirect predictor lookups.
system.cpu0.branchPred.indirectHits           2619531                       # Number of indirect target hits.
system.cpu0.branchPred.indirectMisses         8611367                       # Number of indirect misses.
system.cpu0.branchPredindirectMispredicted       948852                       # Number of mispredicted indirect branches.
system.cpu_voltage_domain.voltage                   1                       # Voltage in Volts
system.cpu_clk_domain.clock                       500                       # Clock period in ticks
system.cpu0.dtb.walker.pwrStateResidencyTicks::UNDEFINED  15267344125                       # Cumulative time (in ticks) in various power states
system.cpu0.dtb.rdAccesses                    6970628                       # TLB accesses on read requests
system.cpu0.dtb.wrAccesses                    2243097                       # TLB accesses on write requests
system.cpu0.dtb.rdMisses                        85320                       # TLB misses on read requests
system.cpu0.dtb.wrMisses                        18438                       # TLB misses on write requests
system.cpu0.apic_clk_domain.clock                8000                       # Clock period in ticks
system.cpu0.interrupts.pwrStateResidencyTicks::UNDEFINED  15267344125                       # Cumulative time (in ticks) in various power states
system.cpu0.itb.walker.pwrStateResidencyTicks::UNDEFINED  15267344125                       # Cumulative time (in ticks) in various power states
system.cpu0.itb.rdAccesses                          0                       # TLB accesses on read requests
system.cpu0.itb.wrAccesses                    6563213                       # TLB accesses on write requests
system.cpu0.itb.rdMisses                            0                       # TLB misses on read requests
system.cpu0.itb.wrMisses                         3040                       # TLB misses on write requests
system.cpu0.workload.numSyscalls                   18                       # Number of system calls
system.cpu0.pwrStateResidencyTicks::ON    15267344125                       # Cumulative time (in ticks) in various power states
system.cpu0.numCycles                        30534688                       # number of cpu cycles simulated
system.cpu0.numWorkItemsStarted                     0                       # number of work items this cpu started
system.cpu0.numWorkItemsCompleted                   0                       # number of work items this cpu completed
system.cpu0.fetch.icacheStallCycles           7414317                       # Number of cycles fetch is stalled on an Icache miss
system.cpu0.fetch.Insts                      56787965                       # Number of instructions fetch has processed
system.cpu0.fetch.Branches                   13333930                       # Number of branches that fetch encountered
system.cpu0.fetch.predictedBranches           3674174                       # Number of branches that fetch has predicted taken
system.cpu0.fetch.Cycles                     21681599                       # Number of cycles fetch has run and was not squashing or blocked
system.cpu0.fetch.SquashCycles                2839350                       # Number of cycles fetch has spent squashing
system.cpu0.fetch.MiscStallCycles                1065                       # Number of cycles fetch has spent waiting on interrupts, or bad addresses, or out of MSHRs
system.cpu0.fetch.PendingTrapStallCycles        17270                       # Number of stall cycles due to pending traps
system.cpu0.fetch.CacheLines                  6560173                       # Number of cache lines fetched
system.cpu0.fetch.IcacheSquashes               326572                       # Number of outstanding Icache misses that were squashed
system.cpu0.fetch.rateDist::samples          30533926                       # Number of instructions fetched each cycle (Total)
system.cpu0.fetch.rateDist::mean             4.064024                       # Number of instructions fetched each cycle (Total)
system.cpu0.fetch.rateDist::stdev            3.670504                       # Number of instructions fetched each cycle (Total)
system.cpu0.fetch.rateDist::underflows              0      0.00%      0.00% # Number of instructions fetched each cycle (Total)
system.cpu0.fetch.rateDist::0                12012415     39.34%     39.34% # Number of instructions fetched each cycle (Total)
system.cpu0.fetch.rateDist::1                  530251      1.74%     41.08% # Number of instructions fetched each cycle (Total)
system.cpu0.fetch.rateDist::2                  874873      2.87%     43.94% # Number of instructions fetched each cycle (Total)
system.cpu0.fetch.rateDist::3                 1338413      4.38%     48.33% # Number of instructions fetched each cycle (Total)
system.cpu0.fetch.rateDist::4                  596135      1.95%     50.28% # Number of instructions fetched each cycle (Total)
system.cpu0.fetch.rateDist::5                 1178004      3.86%     54.14% # Number of instructions fetched each cycle (Total)
system.cpu0.fetch.rateDist::6                 1008706      3.30%     57.44% # Number of instructions fetched each cycle (Total)
system.cpu0.fetch.rateDist::7                  492471      1.61%     59.05% # Number of instructions fetched each cycle (Total)
system.cpu0.fetch.rateDist::8                12502658     40.95%    100.00% # Number of instructions fetched each cycle (Total)
system.cpu0.fetch.rateDist::overflows               0      0.00%    100.00% # Number of instructions fetched each cycle (Total)
system.cpu0.fetch.rateDist::min_value               0                       # Number of instructions fetched each cycle (Total)
system.cpu0.fetch.rateDist::max_value               8                       # Number of instructions fetched each cycle (Total)
system.cpu0.fetch.rateDist::total            30533926                       # Number of instructions fetched each cycle (Total)
system.cpu0.fetch.branchRate                 0.436681                       # Number of branch fetches per cycle
system.cpu0.fetch.rate                       1.859785                       # Number of inst fetches per cycle
system.cpu0.decode.IdleCycles                 5591724                       # Number of cycles decode is idle
system.cpu0.decode.BlockedCycles              8254458                       # Number of cycles decode is blocked
system.cpu0.decode.RunCycles                 13842455                       # Number of cycles decode is running
system.cpu0.decode.UnblockCycles              1425614                       # Number of cycles decode is unblocking
system.cpu0.decode.SquashCycles               1419675                       # Number of cycles decode is squashing
system.cpu0.decode.DecodedInsts             110975261                       # Number of instructions handled by decode
system.cpu0.rename.SquashCycles               1419675                       # Number of cycles rename is squashing
system.cpu0.rename.IdleCycles                 6674605                       # Number of cycles rename is idle
system.cpu0.rename.BlockCycles                6966103                       # Number of cycles rename is blocking
system.cpu0.rename.serializeStallCycles        247205                       # count of cycles rename stalled for serializing inst
system.cpu0.rename.RunCycles                 13961140                       # Number of cycles rename is running
system.cpu0.rename.UnblockCycles              1265198                       # Number of cycles rename is unblocking
system.cpu0.rename.RenamedInsts             103605373                       # Number of instructions processed by rename
system.cpu0.rename.ROBFullEvents                29569                       # Number of times rename has blocked due to ROB full
system.cpu0.rename.IQFullEvents                655940                       # Number of times rename has blocked due to IQ full
system.cpu0.rename.LQFullEvents                   457                       # Number of times rename has blocked due to LQ full
system.cpu0.rename.SQFullEvents                375514                       # Number of times rename has blocked due to SQ full
system.cpu0.rename.RenamedOperands          116472037                       # Number of destination operands rename has renamed
system.cpu0.rename.RenameLookups            255938102                       # Number of register rename lookups that rename has made
system.cpu0.rename.int_rename_lookups       139730758                       # Number of integer rename lookups
system.cpu0.rename.fp_rename_lookups         20647306                       # Number of floating rename lookups
system.cpu0.rename.CommittedMaps             47033270                       # Number of HB maps that are committed
system.cpu0.rename.UndoneMaps                69438788                       # Number of HB maps that are undone due to squashing
system.cpu0.rename.serializingInsts             33560                       # count of serializing insts renamed
system.cpu0.rename.tempSerializingInsts         35908                       # count of temporary serializing insts renamed
system.cpu0.rename.skidInsts                  3126574                       # count of insts added to the skid buffer
system.cpu0.memDep0.insertedLoads             9520075                       # Number of loads inserted to the mem dependence unit.
system.cpu0.memDep0.insertedStores            3143596                       # Number of stores inserted to the mem dependence unit.
system.cpu0.memDep0.conflictingLoads           147901                       # Number of conflicting loads.
system.cpu0.memDep0.conflictingStores          158197                       # Number of conflicting stores.
system.cpu0.iq.iqInstsAdded                  89519204                       # Number of instructions added to the IQ (excludes non-spec)
system.cpu0.iq.iqNonSpecInstsAdded             209968                       # Number of non-speculative instructions added to the IQ
system.cpu0.iq.iqInstsIssued                 70782745                       # Number of instructions issued
system.cpu0.iq.iqSquashedInstsIssued           685415                       # Number of squashed instructions issued
system.cpu0.iq.iqSquashedInstsExamined       49224821                       # Number of squashed instructions iterated over during squash; mainly for profiling
system.cpu0.iq.iqSquashedOperandsExamined     70833901                       # Number of squashed operands that are examined and possibly removed from graph
system.cpu0.iq.iqSquashedNonSpecRemoved        209860                       # Number of squashed non-spec instructions that were removed
system.cpu0.iq.issued_per_cycle::samples     30533926                       # Number of insts issued each cycle
system.cpu0.iq.issued_per_cycle::mean        2.318167                       # Number of insts issued each cycle
system.cpu0.iq.issued_per_cycle::stdev       2.603013                       # Number of insts issued each cycle
system.cpu0.iq.issued_per_cycle::underflows            0      0.00%      0.00% # Number of insts issued each cycle
system.cpu0.iq.issued_per_cycle::0           13478919     44.14%     44.14% # Number of insts issued each cycle
system.cpu0.iq.issued_per_cycle::1            2196680      7.19%     51.34% # Number of insts issued each cycle
system.cpu0.iq.issued_per_cycle::2            2660012      8.71%     60.05% # Number of insts issued each cycle
system.cpu0.iq.issued_per_cycle::3            2279976      7.47%     67.52% # Number of insts issued each cycle
system.cpu0.iq.issued_per_cycle::4            2328165      7.62%     75.14% # Number of insts issued each cycle
system.cpu0.iq.issued_per_cycle::5            2240995      7.34%     82.48% # Number of insts issued each cycle
system.cpu0.iq.issued_per_cycle::6            2634533      8.63%     91.11% # Number of insts issued each cycle
system.cpu0.iq.issued_per_cycle::7            1615888      5.29%     96.40% # Number of insts issued each cycle
system.cpu0.iq.issued_per_cycle::8            1098758      3.60%    100.00% # Number of insts issued each cycle
system.cpu0.iq.issued_per_cycle::overflows            0      0.00%    100.00% # Number of insts issued each cycle
system.cpu0.iq.issued_per_cycle::min_value            0                       # Number of insts issued each cycle
system.cpu0.iq.issued_per_cycle::max_value            8                       # Number of insts issued each cycle
system.cpu0.iq.issued_per_cycle::total       30533926                       # Number of insts issued each cycle
system.cpu0.iq.fu_full::No_OpClass                  0      0.00%      0.00% # attempts to use FU when none available
system.cpu0.iq.fu_full::IntAlu                1410660     92.33%     92.33% # attempts to use FU when none available
system.cpu0.iq.fu_full::IntMult                     0      0.00%     92.33% # attempts to use FU when none available
system.cpu0.iq.fu_full::IntDiv                      0      0.00%     92.33% # attempts to use FU when none available
system.cpu0.iq.fu_full::FloatAdd                83871      5.49%     97.82% # attempts to use FU when none available
system.cpu0.iq.fu_full::FloatCmp                    0      0.00%     97.82% # attempts to use FU when none available
system.cpu0.iq.fu_full::FloatCvt                    0      0.00%     97.82% # attempts to use FU when none available
system.cpu0.iq.fu_full::FloatMult                   0      0.00%     97.82% # attempts to use FU when none available
system.cpu0.iq.fu_full::FloatMultAcc                0      0.00%     97.82% # attempts to use FU when none available
system.cpu0.iq.fu_full::FloatDiv                    0      0.00%     97.82% # attempts to use FU when none available
system.cpu0.iq.fu_full::FloatMisc                   0      0.00%     97.82% # attempts to use FU when none available
system.cpu0.iq.fu_full::FloatSqrt                   0      0.00%     97.82% # attempts to use FU when none available
system.cpu0.iq.fu_full::SimdAdd                     0      0.00%     97.82% # attempts to use FU when none available
system.cpu0.iq.fu_full::SimdAddAcc                  0      0.00%     97.82% # attempts to use FU when none available
system.cpu0.iq.fu_full::SimdAlu                     0      0.00%     97.82% # attempts to use FU when none available
system.cpu0.iq.fu_full::SimdCmp                     0      0.00%     97.82% # attempts to use FU when none available
system.cpu0.iq.fu_full::SimdCvt                     0      0.00%     97.82% # attempts to use FU when none available
system.cpu0.iq.fu_full::SimdMisc                    0      0.00%     97.82% # attempts to use FU when none available
system.cpu0.iq.fu_full::SimdMult                    0      0.00%     97.82% # attempts to use FU when none available
system.cpu0.iq.fu_full::SimdMultAcc                 0      0.00%     97.82% # attempts to use FU when none available
system.cpu0.iq.fu_full::SimdShift                   0      0.00%     97.82% # attempts to use FU when none available
system.cpu0.iq.fu_full::SimdShiftAcc                0      0.00%     97.82% # attempts to use FU when none available
system.cpu0.iq.fu_full::SimdSqrt                    0      0.00%     97.82% # attempts to use FU when none available
system.cpu0.iq.fu_full::SimdFloatAdd                0      0.00%     97.82% # attempts to use FU when none available
system.cpu0.iq.fu_full::SimdFloatAlu                0      0.00%     97.82% # attempts to use FU when none available
system.cpu0.iq.fu_full::SimdFloatCmp                0      0.00%     97.82% # attempts to use FU when none available
system.cpu0.iq.fu_full::SimdFloatCvt                0      0.00%     97.82% # attempts to use FU when none available
system.cpu0.iq.fu_full::SimdFloatDiv                0      0.00%     97.82% # attempts to use FU when none available
system.cpu0.iq.fu_full::SimdFloatMisc               0      0.00%     97.82% # attempts to use FU when none available
system.cpu0.iq.fu_full::SimdFloatMult               0      0.00%     97.82% # attempts to use FU when none available
system.cpu0.iq.fu_full::SimdFloatMultAcc            0      0.00%     97.82% # attempts to use FU when none available
system.cpu0.iq.fu_full::SimdFloatSqrt               0      0.00%     97.82% # attempts to use FU when none available
system.cpu0.iq.fu_full::MemRead                  4612      0.30%     98.12% # attempts to use FU when none available
system.cpu0.iq.fu_full::MemWrite                 2189      0.14%     98.27% # attempts to use FU when none available
system.cpu0.iq.fu_full::FloatMemRead            26237      1.72%     99.98% # attempts to use FU when none available
system.cpu0.iq.fu_full::FloatMemWrite             242      0.02%    100.00% # attempts to use FU when none available
system.cpu0.iq.fu_full::IprAccess                   0      0.00%    100.00% # attempts to use FU when none available
system.cpu0.iq.fu_full::InstPrefetch                0      0.00%    100.00% # attempts to use FU when none available
system.cpu0.iq.FU_type_0::No_OpClass          1966320      2.78%      2.78% # Type of FU issued
system.cpu0.iq.FU_type_0::IntAlu             53416562     75.47%     78.24% # Type of FU issued
system.cpu0.iq.FU_type_0::IntMult                2662      0.00%     78.25% # Type of FU issued
system.cpu0.iq.FU_type_0::IntDiv                70299      0.10%     78.35% # Type of FU issued
system.cpu0.iq.FU_type_0::FloatAdd            5262478      7.43%     85.78% # Type of FU issued
system.cpu0.iq.FU_type_0::FloatCmp                  0      0.00%     85.78% # Type of FU issued
system.cpu0.iq.FU_type_0::FloatCvt                  0      0.00%     85.78% # Type of FU issued
system.cpu0.iq.FU_type_0::FloatMult                 0      0.00%     85.78% # Type of FU issued
system.cpu0.iq.FU_type_0::FloatMultAcc              0      0.00%     85.78% # Type of FU issued
system.cpu0.iq.FU_type_0::FloatDiv                  0      0.00%     85.78% # Type of FU issued
system.cpu0.iq.FU_type_0::FloatMisc                 0      0.00%     85.78% # Type of FU issued
system.cpu0.iq.FU_type_0::FloatSqrt                 0      0.00%     85.78% # Type of FU issued
system.cpu0.iq.FU_type_0::SimdAdd                   0      0.00%     85.78% # Type of FU issued
system.cpu0.iq.FU_type_0::SimdAddAcc                0      0.00%     85.78% # Type of FU issued
system.cpu0.iq.FU_type_0::SimdAlu                   0      0.00%     85.78% # Type of FU issued
system.cpu0.iq.FU_type_0::SimdCmp                   0      0.00%     85.78% # Type of FU issued
system.cpu0.iq.FU_type_0::SimdCvt                   0      0.00%     85.78% # Type of FU issued
system.cpu0.iq.FU_type_0::SimdMisc                  0      0.00%     85.78% # Type of FU issued
system.cpu0.iq.FU_type_0::SimdMult                  0      0.00%     85.78% # Type of FU issued
system.cpu0.iq.FU_type_0::SimdMultAcc               0      0.00%     85.78% # Type of FU issued
system.cpu0.iq.FU_type_0::SimdShift                 0      0.00%     85.78% # Type of FU issued
system.cpu0.iq.FU_type_0::SimdShiftAcc              0      0.00%     85.78% # Type of FU issued
system.cpu0.iq.FU_type_0::SimdSqrt                  0      0.00%     85.78% # Type of FU issued
system.cpu0.iq.FU_type_0::SimdFloatAdd              0      0.00%     85.78% # Type of FU issued
system.cpu0.iq.FU_type_0::SimdFloatAlu              0      0.00%     85.78% # Type of FU issued
system.cpu0.iq.FU_type_0::SimdFloatCmp              0      0.00%     85.78% # Type of FU issued
system.cpu0.iq.FU_type_0::SimdFloatCvt              0      0.00%     85.78% # Type of FU issued
system.cpu0.iq.FU_type_0::SimdFloatDiv              0      0.00%     85.78% # Type of FU issued
system.cpu0.iq.FU_type_0::SimdFloatMisc             0      0.00%     85.78% # Type of FU issued
system.cpu0.iq.FU_type_0::SimdFloatMult             0      0.00%     85.78% # Type of FU issued
system.cpu0.iq.FU_type_0::SimdFloatMultAcc            0      0.00%     85.78% # Type of FU issued
system.cpu0.iq.FU_type_0::SimdFloatSqrt             0      0.00%     85.78% # Type of FU issued
system.cpu0.iq.FU_type_0::MemRead             5018077      7.09%     92.87% # Type of FU issued
system.cpu0.iq.FU_type_0::MemWrite            2446698      3.46%     96.33% # Type of FU issued
system.cpu0.iq.FU_type_0::FloatMemRead        2598887      3.67%    100.00% # Type of FU issued
system.cpu0.iq.FU_type_0::FloatMemWrite           762      0.00%    100.00% # Type of FU issued
system.cpu0.iq.FU_type_0::IprAccess                 0      0.00%    100.00% # Type of FU issued
system.cpu0.iq.FU_type_0::InstPrefetch              0      0.00%    100.00% # Type of FU issued
system.cpu0.iq.FU_type_0::total              70782745                       # Type of FU issued
system.cpu0.iq.rate                          2.318109                       # Inst issue rate
system.cpu0.iq.fu_busy_cnt                    1527811                       # FU busy when requested
system.cpu0.iq.fu_busy_rate                  0.021585                       # FU busy rate (busy events/executed inst)
system.cpu0.iq.int_inst_queue_reads         158148179                       # Number of integer instruction queue reads
system.cpu0.iq.int_inst_queue_writes        119540848                       # Number of integer instruction queue writes
system.cpu0.iq.int_inst_queue_wakeup_accesses     59231864                       # Number of integer instruction queue wakeup accesses
system.cpu0.iq.fp_inst_queue_reads           16164466                       # Number of floating instruction queue reads
system.cpu0.iq.fp_inst_queue_writes          19413387                       # Number of floating instruction queue writes
system.cpu0.iq.fp_inst_queue_wakeup_accesses      7124405                       # Number of floating instruction queue wakeup accesses
system.cpu0.iq.vec_inst_queue_reads                 0                       # Number of vector instruction queue reads
system.cpu0.iq.vec_inst_queue_writes                0                       # Number of vector instruction queue writes
system.cpu0.iq.vec_inst_queue_wakeup_accesses            0                       # Number of vector instruction queue wakeup accesses
system.cpu0.iq.int_alu_accesses              62257244                       # Number of integer alu accesses
system.cpu0.iq.fp_alu_accesses                8086992                       # Number of floating point alu accesses
system.cpu0.iq.vec_alu_accesses                     0                       # Number of vector alu accesses
system.cpu0.iew.lsq.thread0.forwLoads          192932                       # Number of loads that had data forwarded from stores
system.cpu0.iew.lsq.thread0.invAddrLoads            0                       # Number of loads ignored due to an invalid address
system.cpu0.iew.lsq.thread0.squashedLoads      5941748                       # Number of loads squashed
system.cpu0.iew.lsq.thread0.ignoredResponses         3338                       # Number of memory responses ignored because the instruction is squashed
system.cpu0.iew.lsq.thread0.memOrderViolation          274                       # Number of memory ordering violations
system.cpu0.iew.lsq.thread0.squashedStores      1552431                       # Number of stores squashed
system.cpu0.iew.lsq.thread0.invAddrSwpfs            0                       # Number of software prefetches ignored due to an invalid address
system.cpu0.iew.lsq.thread0.blockedLoads            0                       # Number of blocked loads due to partial load-store forwarding
system.cpu0.iew.lsq.thread0.rescheduledLoads         3336                       # Number of loads that were rescheduled
system.cpu0.iew.lsq.thread0.cacheBlocked           10                       # Number of times an access to memory failed due to the cache being blocked
system.cpu0.iew.iewIdleCycles                       0                       # Number of cycles IEW is idle
system.cpu0.iew.iewSquashCycles               1419675                       # Number of cycles IEW is squashing
system.cpu0.iew.iewBlockCycles                6301262                       # Number of cycles IEW is blocking
system.cpu0.iew.iewUnblockCycles                10512                       # Number of cycles IEW is unblocking
system.cpu0.iew.iewDispatchedInsts           89729172                       # Number of instructions dispatched to IQ
system.cpu0.iew.iewDispSquashedInsts            48085                       # Number of squashed instructions skipped by dispatch
system.cpu0.iew.iewDispLoadInsts              9520075                       # Number of dispatched load instructions
system.cpu0.iew.iewDispStoreInsts             3143596                       # Number of dispatched store instructions
system.cpu0.iew.iewDispNonSpecInsts             87667                       # Number of dispatched non-speculative instructions
system.cpu0.iew.iewIQFullEvents                  4901                       # Number of times the IQ has become full, causing a stall
system.cpu0.iew.iewLSQFullEvents                 4072                       # Number of times the LSQ has become full, causing a stall
system.cpu0.iew.memOrderViolationEvents           274                       # Number of memory order violations
system.cpu0.iew.predictedTakenIncorrect        421272                       # Number of branches that were predicted taken incorrectly
system.cpu0.iew.predictedNotTakenIncorrect      1359723                       # Number of branches that were predicted not taken incorrectly
system.cpu0.iew.branchMispredicts             1780995                       # Number of branch mispredicts detected at execute
system.cpu0.iew.iewExecutedInsts             67599199                       # Number of executed instructions
system.cpu0.iew.iewExecLoadInsts              6931537                       # Number of load instructions executed
system.cpu0.iew.iewExecSquashedInsts          3183549                       # Number of squashed instructions skipped in execute
system.cpu0.iew.exec_swp                            0                       # number of swp insts executed
system.cpu0.iew.exec_nop                            0                       # number of nop insts executed
system.cpu0.iew.exec_refs                     9173943                       # number of memory reference insts executed
system.cpu0.iew.exec_branches                 6154297                       # Number of branches executed
system.cpu0.iew.exec_stores                   2242406                       # Number of stores executed
system.cpu0.iew.exec_rate                    2.213849                       # Inst execution rate
system.cpu0.iew.wb_sent                      66939343                       # cumulative count of insts sent to commit
system.cpu0.iew.wb_count                     66356269                       # cumulative count of insts written-back
system.cpu0.iew.wb_producers                 49044172                       # num instructions producing a value
system.cpu0.iew.wb_consumers                 86906921                       # num instructions consuming a value
system.cpu0.iew.wb_rate                      2.173144                       # insts written-back per cycle
system.cpu0.iew.wb_fanout                    0.564330                       # average fanout of values written-back
system.cpu0.commit.commitSquashedInsts       49225018                       # The number of squashed insts skipped by commit
system.cpu0.commit.commitNonSpecStalls            108                       # The number of times commit has been forced to stall to communicate backwards
system.cpu0.commit.branchMispredicts          1419524                       # The number of times a branch was mispredicted
system.cpu0.commit.committed_per_cycle::samples     23056757                       # Number of insts commited each cycle
system.cpu0.commit.committed_per_cycle::mean     1.756724                       # Number of insts commited each cycle
system.cpu0.commit.committed_per_cycle::stdev     2.390368                       # Number of insts commited each cycle
system.cpu0.commit.committed_per_cycle::underflows            0      0.00%      0.00% # Number of insts commited each cycle
system.cpu0.commit.committed_per_cycle::0     10833317     46.99%     46.99% # Number of insts commited each cycle
system.cpu0.commit.committed_per_cycle::1      2993819     12.98%     59.97% # Number of insts commited each cycle
system.cpu0.commit.committed_per_cycle::2      3380407     14.66%     74.63% # Number of insts commited each cycle
system.cpu0.commit.committed_per_cycle::3      1815300      7.87%     82.50% # Number of insts commited each cycle
system.cpu0.commit.committed_per_cycle::4       940273      4.08%     86.58% # Number of insts commited each cycle
system.cpu0.commit.committed_per_cycle::5       740995      3.21%     89.80% # Number of insts commited each cycle
system.cpu0.commit.committed_per_cycle::6       328725      1.43%     91.22% # Number of insts commited each cycle
system.cpu0.commit.committed_per_cycle::7       325960      1.41%     92.64% # Number of insts commited each cycle
system.cpu0.commit.committed_per_cycle::8      1697961      7.36%    100.00% # Number of insts commited each cycle
system.cpu0.commit.committed_per_cycle::overflows            0      0.00%    100.00% # Number of insts commited each cycle
system.cpu0.commit.committed_per_cycle::min_value            0                       # Number of insts commited each cycle
system.cpu0.commit.committed_per_cycle::max_value            8                       # Number of insts commited each cycle
system.cpu0.commit.committed_per_cycle::total     23056757                       # Number of insts commited each cycle
system.cpu0.commit.committedInsts            18416715                       # Number of instructions committed
system.cpu0.commit.committedOps              40504358                       # Number of ops (including micro ops) committed
system.cpu0.commit.swp_count                        0                       # Number of s/w prefetches committed
system.cpu0.commit.refs                       5169489                       # Number of memory references committed
system.cpu0.commit.loads                      3578326                       # Number of loads committed
system.cpu0.commit.membars                         60                       # Number of memory barriers committed
system.cpu0.commit.branches                   4223239                       # Number of branches committed
system.cpu0.commit.vec_insts                        0                       # Number of committed Vector instructions.
system.cpu0.commit.fp_insts                   3088409                       # Number of committed floating point instructions.
system.cpu0.commit.int_insts                 37822902                       # Number of committed integer instructions.
system.cpu0.commit.function_calls              357363                       # Number of function calls committed.
system.cpu0.commit.op_class_0::No_OpClass       720138      1.78%      1.78% # Class of committed instruction
system.cpu0.commit.op_class_0::IntAlu        32231991     79.58%     81.35% # Class of committed instruction
system.cpu0.commit.op_class_0::IntMult           1421      0.00%     81.36% # Class of committed instruction
system.cpu0.commit.op_class_0::IntDiv           45495      0.11%     81.47% # Class of committed instruction
system.cpu0.commit.op_class_0::FloatAdd       2335824      5.77%     87.24% # Class of committed instruction
system.cpu0.commit.op_class_0::FloatCmp             0      0.00%     87.24% # Class of committed instruction
system.cpu0.commit.op_class_0::FloatCvt             0      0.00%     87.24% # Class of committed instruction
system.cpu0.commit.op_class_0::FloatMult            0      0.00%     87.24% # Class of committed instruction
system.cpu0.commit.op_class_0::FloatMultAcc            0      0.00%     87.24% # Class of committed instruction
system.cpu0.commit.op_class_0::FloatDiv             0      0.00%     87.24% # Class of committed instruction
system.cpu0.commit.op_class_0::FloatMisc            0      0.00%     87.24% # Class of committed instruction
system.cpu0.commit.op_class_0::FloatSqrt            0      0.00%     87.24% # Class of committed instruction
system.cpu0.commit.op_class_0::SimdAdd              0      0.00%     87.24% # Class of committed instruction
system.cpu0.commit.op_class_0::SimdAddAcc            0      0.00%     87.24% # Class of committed instruction
system.cpu0.commit.op_class_0::SimdAlu              0      0.00%     87.24% # Class of committed instruction
system.cpu0.commit.op_class_0::SimdCmp              0      0.00%     87.24% # Class of committed instruction
system.cpu0.commit.op_class_0::SimdCvt              0      0.00%     87.24% # Class of committed instruction
system.cpu0.commit.op_class_0::SimdMisc             0      0.00%     87.24% # Class of committed instruction
system.cpu0.commit.op_class_0::SimdMult             0      0.00%     87.24% # Class of committed instruction
system.cpu0.commit.op_class_0::SimdMultAcc            0      0.00%     87.24% # Class of committed instruction
system.cpu0.commit.op_class_0::SimdShift            0      0.00%     87.24% # Class of committed instruction
system.cpu0.commit.op_class_0::SimdShiftAcc            0      0.00%     87.24% # Class of committed instruction
system.cpu0.commit.op_class_0::SimdSqrt             0      0.00%     87.24% # Class of committed instruction
system.cpu0.commit.op_class_0::SimdFloatAdd            0      0.00%     87.24% # Class of committed instruction
system.cpu0.commit.op_class_0::SimdFloatAlu            0      0.00%     87.24% # Class of committed instruction
system.cpu0.commit.op_class_0::SimdFloatCmp            0      0.00%     87.24% # Class of committed instruction
system.cpu0.commit.op_class_0::SimdFloatCvt            0      0.00%     87.24% # Class of committed instruction
system.cpu0.commit.op_class_0::SimdFloatDiv            0      0.00%     87.24% # Class of committed instruction
system.cpu0.commit.op_class_0::SimdFloatMisc            0      0.00%     87.24% # Class of committed instruction
system.cpu0.commit.op_class_0::SimdFloatMult            0      0.00%     87.24% # Class of committed instruction
system.cpu0.commit.op_class_0::SimdFloatMultAcc            0      0.00%     87.24% # Class of committed instruction
system.cpu0.commit.op_class_0::SimdFloatSqrt            0      0.00%     87.24% # Class of committed instruction
system.cpu0.commit.op_class_0::MemRead        2835754      7.00%     94.24% # Class of committed instruction
system.cpu0.commit.op_class_0::MemWrite       1591163      3.93%     98.17% # Class of committed instruction
system.cpu0.commit.op_class_0::FloatMemRead       742572      1.83%    100.00% # Class of committed instruction
system.cpu0.commit.op_class_0::FloatMemWrite            0      0.00%    100.00% # Class of committed instruction
system.cpu0.commit.op_class_0::IprAccess            0      0.00%    100.00% # Class of committed instruction
system.cpu0.commit.op_class_0::InstPrefetch            0      0.00%    100.00% # Class of committed instruction
system.cpu0.commit.op_class_0::total         40504358                       # Class of committed instruction
system.cpu0.commit.bw_lim_events              1697961                       # number cycles where commit BW limit reached
system.cpu0.rob.rob_reads                   111088172                       # The number of ROB reads
system.cpu0.rob.rob_writes                  187083276                       # The number of ROB writes
system.cpu0.timesIdled                             99                       # Number of times that the entire CPU went into an idle state and unscheduled itself
system.cpu0.idleCycles                            762                       # Total number of cycles that the CPU has spent unscheduled due to idling
system.cpu0.committedInsts                   18416715                       # Number of Instructions Simulated
system.cpu0.committedOps                     40504358                       # Number of Ops (including micro ops) Simulated
system.cpu0.cpi                              1.657988                       # CPI: Cycles Per Instruction
system.cpu0.cpi_total                        1.657988                       # CPI: Total CPI of All Threads
system.cpu0.ipc                              0.603141                       # IPC: Instructions Per Cycle
system.cpu0.ipc_total                        0.603141                       # IPC: Total IPC of All Threads
system.cpu0.int_regfile_reads                85655381                       # number of integer regfile reads
system.cpu0.int_regfile_writes               50644759                       # number of integer regfile writes
system.cpu0.fp_regfile_reads                 11204016                       # number of floating regfile reads
system.cpu0.fp_regfile_writes                 6758121                       # number of floating regfile writes
system.cpu0.cc_regfile_reads                 35378238                       # number of cc regfile reads
system.cpu0.cc_regfile_writes                17721027                       # number of cc regfile writes
system.cpu0.misc_regfile_reads               21692558                       # number of misc regfile reads
system.cpu0.dcache.tags.pwrStateResidencyTicks::UNDEFINED  15267344125                       # Cumulative time (in ticks) in various power states
system.cpu0.dcache.tags.replacements            19704                       # number of replacements
system.cpu0.dcache.tags.tagsinuse                1024                       # Cycle average of tags in use
system.cpu0.dcache.tags.total_refs             465236                       # Total number of references to valid blocks.
system.cpu0.dcache.tags.sampled_refs            19704                       # Sample count of references to valid blocks.
system.cpu0.dcache.tags.avg_refs            23.611246                       # Average number of references to valid blocks.
system.cpu0.dcache.tags.warmup_cycle                0                       # Cycle when the warmup percentage was hit.
system.cpu0.dcache.tags.occ_blocks::cpu0.data         1024                       # Average occupied blocks per requestor
system.cpu0.dcache.tags.occ_percent::cpu0.data            1                       # Average percentage of cache occupancy
system.cpu0.dcache.tags.occ_percent::total            1                       # Average percentage of cache occupancy
system.cpu0.dcache.tags.occ_task_id_blocks::1024         1024                       # Occupied blocks per task id
system.cpu0.dcache.tags.age_task_id_blocks_1024::0           11                       # Occupied blocks per task id
system.cpu0.dcache.tags.age_task_id_blocks_1024::1          152                       # Occupied blocks per task id
system.cpu0.dcache.tags.age_task_id_blocks_1024::2          685                       # Occupied blocks per task id
system.cpu0.dcache.tags.age_task_id_blocks_1024::3          119                       # Occupied blocks per task id
system.cpu0.dcache.tags.age_task_id_blocks_1024::4           57                       # Occupied blocks per task id
system.cpu0.dcache.tags.occ_task_id_percent::1024            1                       # Percentage of cache occupancy per task id
system.cpu0.dcache.tags.tag_accesses         33167800                       # Number of tag accesses
system.cpu0.dcache.tags.data_accesses        33167800                       # Number of data accesses
system.cpu0.dcache.pwrStateResidencyTicks::UNDEFINED  15267344125                       # Cumulative time (in ticks) in various power states
system.cpu0.dcache.ReadReq_hits::cpu0.data      6667929                       # number of ReadReq hits
system.cpu0.dcache.ReadReq_hits::total        6667929                       # number of ReadReq hits
system.cpu0.dcache.WriteReq_hits::cpu0.data      1581886                       # number of WriteReq hits
system.cpu0.dcache.WriteReq_hits::total       1581886                       # number of WriteReq hits
system.cpu0.dcache.demand_hits::cpu0.data      8249815                       # number of demand (read+write) hits
system.cpu0.dcache.demand_hits::total         8249815                       # number of demand (read+write) hits
system.cpu0.dcache.overall_hits::cpu0.data      8249815                       # number of overall hits
system.cpu0.dcache.overall_hits::total        8249815                       # number of overall hits
system.cpu0.dcache.ReadReq_misses::cpu0.data        27682                       # number of ReadReq misses
system.cpu0.dcache.ReadReq_misses::total        27682                       # number of ReadReq misses
system.cpu0.dcache.WriteReq_misses::cpu0.data         9527                       # number of WriteReq misses
system.cpu0.dcache.WriteReq_misses::total         9527                       # number of WriteReq misses
system.cpu0.dcache.demand_misses::cpu0.data        37209                       # number of demand (read+write) misses
system.cpu0.dcache.demand_misses::total         37209                       # number of demand (read+write) misses
system.cpu0.dcache.overall_misses::cpu0.data        37209                       # number of overall misses
system.cpu0.dcache.overall_misses::total        37209                       # number of overall misses
system.cpu0.dcache.ReadReq_miss_latency::cpu0.data   1841941000                       # number of ReadReq miss cycles
system.cpu0.dcache.ReadReq_miss_latency::total   1841941000                       # number of ReadReq miss cycles
system.cpu0.dcache.WriteReq_miss_latency::cpu0.data    899645500                       # number of WriteReq miss cycles
system.cpu0.dcache.WriteReq_miss_latency::total    899645500                       # number of WriteReq miss cycles
system.cpu0.dcache.demand_miss_latency::cpu0.data   2741586500                       # number of demand (read+write) miss cycles
system.cpu0.dcache.demand_miss_latency::total   2741586500                       # number of demand (read+write) miss cycles
system.cpu0.dcache.overall_miss_latency::cpu0.data   2741586500                       # number of overall miss cycles
system.cpu0.dcache.overall_miss_latency::total   2741586500                       # number of overall miss cycles
system.cpu0.dcache.ReadReq_accesses::cpu0.data      6695611                       # number of ReadReq accesses(hits+misses)
system.cpu0.dcache.ReadReq_accesses::total      6695611                       # number of ReadReq accesses(hits+misses)
system.cpu0.dcache.WriteReq_accesses::cpu0.data      1591413                       # number of WriteReq accesses(hits+misses)
system.cpu0.dcache.WriteReq_accesses::total      1591413                       # number of WriteReq accesses(hits+misses)
system.cpu0.dcache.demand_accesses::cpu0.data      8287024                       # number of demand (read+write) accesses
system.cpu0.dcache.demand_accesses::total      8287024                       # number of demand (read+write) accesses
system.cpu0.dcache.overall_accesses::cpu0.data      8287024                       # number of overall (read+write) accesses
system.cpu0.dcache.overall_accesses::total      8287024                       # number of overall (read+write) accesses
system.cpu0.dcache.ReadReq_miss_rate::cpu0.data     0.004134                       # miss rate for ReadReq accesses
[...]
system.l2.ReadCleanReq_miss_rate::cpu0.inst     0.000788                       # miss rate for ReadCleanReq accesses
system.l2.ReadCleanReq_miss_rate::total      0.000788                       # miss rate for ReadCleanReq accesses
system.l2.ReadSharedReq_miss_rate::cpu0.data     0.669145                       # miss rate for ReadSharedReq accesses
system.l2.ReadSharedReq_miss_rate::total     0.669145                       # miss rate for ReadSharedReq accesses
system.l2.demand_miss_rate::cpu0.inst        0.000788                       # miss rate for demand accesses
system.l2.demand_miss_rate::cpu0.data        0.813084                       # miss rate for demand accesses
system.l2.demand_miss_rate::total            0.763935                       # miss rate for demand accesses
system.l2.overall_miss_rate::cpu0.inst       0.000788                       # miss rate for overall accesses
system.l2.overall_miss_rate::cpu0.data       0.813084                       # miss rate for overall accesses
system.l2.overall_miss_rate::total           0.763935                       # miss rate for overall accesses
system.l2.ReadExReq_avg_miss_latency::cpu0.data 93831.538374                       # average ReadExReq miss latency
system.l2.ReadExReq_avg_miss_latency::total 93831.538374                       # average ReadExReq miss latency
system.l2.ReadCleanReq_avg_miss_latency::cpu0.inst        89500                       # average ReadCleanReq miss latency
system.l2.ReadCleanReq_avg_miss_latency::total        89500                       # average ReadCleanReq miss latency
system.l2.ReadSharedReq_avg_miss_latency::cpu0.data 105779.236111                       # average ReadSharedReq miss latency
system.l2.ReadSharedReq_avg_miss_latency::total 105779.236111                       # average ReadSharedReq miss latency
system.l2.demand_avg_miss_latency::cpu0.inst        89500                       # average overall miss latency
system.l2.demand_avg_miss_latency::cpu0.data 99200.954997                       # average overall miss latency
system.l2.demand_avg_miss_latency::total 99200.349519                       # average overall miss latency
system.l2.overall_avg_miss_latency::cpu0.inst        89500                       # average overall miss latency
system.l2.overall_avg_miss_latency::cpu0.data 99200.954997                       # average overall miss latency
system.l2.overall_avg_miss_latency::total 99200.349519                       # average overall miss latency
system.l2.blocked_cycles::no_mshrs                  0                       # number of cycles access was blocked
system.l2.blocked_cycles::no_targets                0                       # number of cycles access was blocked
system.l2.blocked::no_mshrs                         0                       # number of cycles access was blocked
system.l2.blocked::no_targets                       0                       # number of cycles access was blocked
system.l2.avg_blocked_cycles::no_mshrs            nan                       # average number of cycles each access was blocked
system.l2.avg_blocked_cycles::no_targets          nan                       # average number of cycles each access was blocked
system.l2.writebacks::writebacks                14504                       # number of writebacks
system.l2.writebacks::total                     14504                       # number of writebacks
system.l2.ReadExReq_mshr_misses::cpu0.data         8821                       # number of ReadExReq MSHR misses
system.l2.ReadExReq_mshr_misses::total           8821                       # number of ReadExReq MSHR misses
system.l2.ReadCleanReq_mshr_misses::cpu0.inst            1                       # number of ReadCleanReq MSHR misses
system.l2.ReadCleanReq_mshr_misses::total            1                       # number of ReadCleanReq MSHR misses
system.l2.ReadSharedReq_mshr_misses::cpu0.data         7200                       # number of ReadSharedReq MSHR misses
system.l2.ReadSharedReq_mshr_misses::total         7200                       # number of ReadSharedReq MSHR misses
system.l2.demand_mshr_misses::cpu0.inst             1                       # number of demand (read+write) MSHR misses
system.l2.demand_mshr_misses::cpu0.data         16021                       # number of demand (read+write) MSHR misses
system.l2.demand_mshr_misses::total             16022                       # number of demand (read+write) MSHR misses
system.l2.overall_mshr_misses::cpu0.inst            1                       # number of overall MSHR misses
system.l2.overall_mshr_misses::cpu0.data        16021                       # number of overall MSHR misses
system.l2.overall_mshr_misses::total            16022                       # number of overall MSHR misses
system.l2.ReadExReq_mshr_miss_latency::cpu0.data    739478000                       # number of ReadExReq MSHR miss cycles
system.l2.ReadExReq_mshr_miss_latency::total    739478000                       # number of ReadExReq MSHR miss cycles
system.l2.ReadCleanReq_mshr_miss_latency::cpu0.inst        79500                       # number of ReadCleanReq MSHR miss cycles
system.l2.ReadCleanReq_mshr_miss_latency::total        79500                       # number of ReadCleanReq MSHR miss cycles
system.l2.ReadSharedReq_mshr_miss_latency::cpu0.data    689610500                       # number of ReadSharedReq MSHR miss cycles
system.l2.ReadSharedReq_mshr_miss_latency::total    689610500                       # number of ReadSharedReq MSHR miss cycles
system.l2.demand_mshr_miss_latency::cpu0.inst        79500                       # number of demand (read+write) MSHR miss cycles
system.l2.demand_mshr_miss_latency::cpu0.data   1429088500                       # number of demand (read+write) MSHR miss cycles
system.l2.demand_mshr_miss_latency::total   1429168000                       # number of demand (read+write) MSHR miss cycles
system.l2.overall_mshr_miss_latency::cpu0.inst        79500                       # number of overall MSHR miss cycles
system.l2.overall_mshr_miss_latency::cpu0.data   1429088500                       # number of overall MSHR miss cycles
system.l2.overall_mshr_miss_latency::total   1429168000                       # number of overall MSHR miss cycles
system.l2.ReadExReq_mshr_miss_rate::cpu0.data     0.986248                       # mshr miss rate for ReadExReq accesses
system.l2.ReadExReq_mshr_miss_rate::total     0.986248                       # mshr miss rate for ReadExReq accesses
system.l2.ReadCleanReq_mshr_miss_rate::cpu0.inst     0.000788                       # mshr miss rate for ReadCleanReq accesses
system.l2.ReadCleanReq_mshr_miss_rate::total     0.000788                       # mshr miss rate for ReadCleanReq accesses
system.l2.ReadSharedReq_mshr_miss_rate::cpu0.data     0.669145                       # mshr miss rate for ReadSharedReq accesses
system.l2.ReadSharedReq_mshr_miss_rate::total     0.669145                       # mshr miss rate for ReadSharedReq accesses
system.l2.demand_mshr_miss_rate::cpu0.inst     0.000788                       # mshr miss rate for demand accesses
system.l2.demand_mshr_miss_rate::cpu0.data     0.813084                       # mshr miss rate for demand accesses
system.l2.demand_mshr_miss_rate::total       0.763935                       # mshr miss rate for demand accesses
system.l2.overall_mshr_miss_rate::cpu0.inst     0.000788                       # mshr miss rate for overall accesses
system.l2.overall_mshr_miss_rate::cpu0.data     0.813084                       # mshr miss rate for overall accesses
system.l2.overall_mshr_miss_rate::total      0.763935                       # mshr miss rate for overall accesses
system.l2.ReadExReq_avg_mshr_miss_latency::cpu0.data 83831.538374                       # average ReadExReq mshr miss latency
system.l2.ReadExReq_avg_mshr_miss_latency::total 83831.538374                       # average ReadExReq mshr miss latency
system.l2.ReadCleanReq_avg_mshr_miss_latency::cpu0.inst        79500                       # average ReadCleanReq mshr miss latency
system.l2.ReadCleanReq_avg_mshr_miss_latency::total        79500                       # average ReadCleanReq mshr miss latency
system.l2.ReadSharedReq_avg_mshr_miss_latency::cpu0.data 95779.236111                       # average ReadSharedReq mshr miss latency
system.l2.ReadSharedReq_avg_mshr_miss_latency::total 95779.236111                       # average ReadSharedReq mshr miss latency
system.l2.demand_avg_mshr_miss_latency::cpu0.inst        79500                       # average overall mshr miss latency
system.l2.demand_avg_mshr_miss_latency::cpu0.data 89200.954997                       # average overall mshr miss latency
system.l2.demand_avg_mshr_miss_latency::total 89200.349519                       # average overall mshr miss latency
system.l2.overall_avg_mshr_miss_latency::cpu0.inst        79500                       # average overall mshr miss latency
system.l2.overall_avg_mshr_miss_latency::cpu0.data 89200.954997                       # average overall mshr miss latency
system.l2.overall_avg_mshr_miss_latency::total 89200.349519                       # average overall mshr miss latency
system.membus.snoop_filter.tot_requests         32041                       # Total number of requests made to the snoop filter.
system.membus.snoop_filter.hit_single_requests        16021                       # Number of requests hitting in the snoop filter with a single holder of the requested data.
system.membus.snoop_filter.hit_multi_requests            0                       # Number of requests hitting in the snoop filter with multiple (>1) holders of the requested data.
system.membus.snoop_filter.tot_snoops               0                       # Total number of snoops made to the snoop filter.
system.membus.snoop_filter.hit_single_snoops            0                       # Number of snoops hitting in the snoop filter with a single holder of the requested data.
system.membus.snoop_filter.hit_multi_snoops            0                       # Number of snoops hitting in the snoop filter with multiple (>1) holders of the requested data.
system.membus.pwrStateResidencyTicks::UNDEFINED  15267344125                       # Cumulative time (in ticks) in various power states
system.membus.trans_dist::ReadResp               7201                       # Transaction distribution
system.membus.trans_dist::WritebackDirty        14504                       # Transaction distribution
system.membus.trans_dist::CleanEvict             1515                       # Transaction distribution
system.membus.trans_dist::ReadExReq              8821                       # Transaction distribution
system.membus.trans_dist::ReadExResp             8821                       # Transaction distribution
system.membus.trans_dist::ReadSharedReq          7201                       # Transaction distribution
system.membus.pkt_count_system.l2.mem_side::system.mem_ctrls.port        48063                       # Packet count per connected master and slave (bytes)
system.membus.pkt_count_system.l2.mem_side::total        48063                       # Packet count per connected master and slave (bytes)
system.membus.pkt_count::total                  48063                       # Packet count per connected master and slave (bytes)
system.membus.pkt_size_system.l2.mem_side::system.mem_ctrls.port      1953664                       # Cumulative packet size per connected master and slave (bytes)
system.membus.pkt_size_system.l2.mem_side::total      1953664                       # Cumulative packet size per connected master and slave (bytes)
system.membus.pkt_size::total                 1953664                       # Cumulative packet size per connected master and slave (bytes)
system.membus.snoops                                0                       # Total snoops (count)
system.membus.snoopTraffic                          0                       # Total snoop traffic (bytes)
system.membus.snoop_fanout::samples             16022                       # Request fanout histogram
system.membus.snoop_fanout::mean                    0                       # Request fanout histogram
system.membus.snoop_fanout::stdev                   0                       # Request fanout histogram
system.membus.snoop_fanout::underflows              0      0.00%      0.00% # Request fanout histogram
system.membus.snoop_fanout::0                   16022    100.00%    100.00% # Request fanout histogram
system.membus.snoop_fanout::1                       0      0.00%    100.00% # Request fanout histogram
system.membus.snoop_fanout::overflows               0      0.00%    100.00% # Request fanout histogram
system.membus.snoop_fanout::min_value               0                       # Request fanout histogram
system.membus.snoop_fanout::max_value               0                       # Request fanout histogram
system.membus.snoop_fanout::total               16022                       # Request fanout histogram
system.membus.reqLayer8.occupancy            93958500                       # Layer occupancy (ticks)
system.membus.reqLayer8.utilization               0.6                       # Layer utilization (%)
system.membus.respLayer1.occupancy           86937000                       # Layer occupancy (ticks)
system.membus.respLayer1.utilization              0.6                       # Layer utilization (%)
system.tol2bus.snoop_filter.tot_requests        41979                       # Total number of requests made to the snoop filter.
system.tol2bus.snoop_filter.hit_single_requests        20975                       # Number of requests hitting in the snoop filter with a single holder of the requested data.
system.tol2bus.snoop_filter.hit_multi_requests           68                       # Number of requests hitting in the snoop filter with multiple (>1) holders of the requested data.
system.tol2bus.snoop_filter.tot_snoops              5                       # Total number of snoops made to the snoop filter.
system.tol2bus.snoop_filter.hit_single_snoops            5                       # Number of snoops hitting in the snoop filter with a single holder of the requested data.
system.tol2bus.snoop_filter.hit_multi_snoops            0                       # Number of snoops hitting in the snoop filter with multiple (>1) holders of the requested data.
system.tol2bus.pwrStateResidencyTicks::UNDEFINED  15267344125                       # Cumulative time (in ticks) in various power states
system.tol2bus.trans_dist::ReadResp             12045                       # Transaction distribution
system.tol2bus.trans_dist::WritebackDirty        30542                       # Transaction distribution
system.tol2bus.trans_dist::WritebackClean         1269                       # Transaction distribution
system.tol2bus.trans_dist::CleanEvict            5186                       # Transaction distribution
system.tol2bus.trans_dist::UpgradeReq              17                       # Transaction distribution
system.tol2bus.trans_dist::UpgradeResp             17                       # Transaction distribution
system.tol2bus.trans_dist::ReadExReq             8944                       # Transaction distribution
system.tol2bus.trans_dist::ReadExResp            8944                       # Transaction distribution
system.tol2bus.trans_dist::ReadCleanReq          1285                       # Transaction distribution
system.tol2bus.trans_dist::ReadSharedReq        10760                       # Transaction distribution
system.tol2bus.pkt_count_system.cpu0.icache.mem_side::system.l2.cpu_side         3823                       # Packet count per connected master and slave (bytes)
system.tol2bus.pkt_count_system.cpu0.dcache.mem_side::system.l2.cpu_side        59146                       # Packet count per connected master and slave (bytes)
system.tol2bus.pkt_count::total                 62969                       # Packet count per connected master and slave (bytes)
system.tol2bus.pkt_size_system.cpu0.icache.mem_side::system.l2.cpu_side       162432                       # Cumulative packet size per connected master and slave (bytes)
system.tol2bus.pkt_size_system.cpu0.dcache.mem_side::system.l2.cpu_side      2287488                       # Cumulative packet size per connected master and slave (bytes)
system.tol2bus.pkt_size::total                2449920                       # Cumulative packet size per connected master and slave (bytes)
system.tol2bus.snoops                           16040                       # Total snoops (count)
system.tol2bus.snoopTraffic                    929280                       # Total snoop traffic (bytes)
system.tol2bus.snoop_fanout::samples            37030                       # Request fanout histogram
system.tol2bus.snoop_fanout::mean            0.002025                       # Request fanout histogram
system.tol2bus.snoop_fanout::stdev           0.044959                       # Request fanout histogram
system.tol2bus.snoop_fanout::underflows             0      0.00%      0.00% # Request fanout histogram
system.tol2bus.snoop_fanout::0                  36955     99.80%     99.80% # Request fanout histogram
system.tol2bus.snoop_fanout::1                     75      0.20%    100.00% # Request fanout histogram
system.tol2bus.snoop_fanout::2                      0      0.00%    100.00% # Request fanout histogram
system.tol2bus.snoop_fanout::3                      0      0.00%    100.00% # Request fanout histogram
system.tol2bus.snoop_fanout::4                      0      0.00%    100.00% # Request fanout histogram
system.tol2bus.snoop_fanout::5                      0      0.00%    100.00% # Request fanout histogram
system.tol2bus.snoop_fanout::6                      0      0.00%    100.00% # Request fanout histogram
system.tol2bus.snoop_fanout::7                      0      0.00%    100.00% # Request fanout histogram
system.tol2bus.snoop_fanout::8                      0      0.00%    100.00% # Request fanout histogram
system.tol2bus.snoop_fanout::9                      0      0.00%    100.00% # Request fanout histogram
system.tol2bus.snoop_fanout::10                     0      0.00%    100.00% # Request fanout histogram
system.tol2bus.snoop_fanout::11                     0      0.00%    100.00% # Request fanout histogram
system.tol2bus.snoop_fanout::12                     0      0.00%    100.00% # Request fanout histogram
system.tol2bus.snoop_fanout::13                     0      0.00%    100.00% # Request fanout histogram
system.tol2bus.snoop_fanout::14                     0      0.00%    100.00% # Request fanout histogram
system.tol2bus.snoop_fanout::15                     0      0.00%    100.00% # Request fanout histogram
system.tol2bus.snoop_fanout::16                     0      0.00%    100.00% # Request fanout histogram
system.tol2bus.snoop_fanout::overflows              0      0.00%    100.00% # Request fanout histogram
system.tol2bus.snoop_fanout::min_value              0                       # Request fanout histogram
system.tol2bus.snoop_fanout::max_value              1                       # Request fanout histogram
system.tol2bus.snoop_fanout::total              37030                       # Request fanout histogram
system.tol2bus.reqLayer0.occupancy           38296500                       # Layer occupancy (ticks)
system.tol2bus.reqLayer0.utilization              0.3                       # Layer utilization (%)
system.tol2bus.respLayer0.occupancy           1927500                       # Layer occupancy (ticks)
system.tol2bus.respLayer0.utilization             0.0                       # Layer utilization (%)
system.tol2bus.respLayer1.occupancy          29564999                       # Layer occupancy (ticks)
system.tol2bus.respLayer1.utilization             0.2                       # Layer utilization (%)

---------- End Simulation Statistics   ----------
