
---------- Begin Simulation Statistics ----------
sim_seconds                                  0.015267                       # Number of seconds simulated
sim_ticks                                 15267344125                       # Number of ticks simulated
final_tick                               1496199724250                       # Number of ticks from beginning of simulation (restored from checkpoints and never reset)
sim_freq                                 1000000000000                       # Frequency of simulated ticks
host_inst_rate                               15109273                       # Simulator instruction rate (inst/s)
host_op_rate                                 27590144                       # Simulator op (including micro ops) rate (op/s)
host_tick_rate                               68777362                       # Simulator tick rate (ticks/s)
host_mem_usage                                2332060                       # Number of bytes of host memory used
host_seconds                                   221.98                       # Real time elapsed on the host
sim_insts                                  3353988184                       # Number of instructions simulated
sim_ops                                    6124518279                       # Number of ops (including micro ops) simulated
system.voltage_domain.voltage                       1                       # Voltage in Volts
system.clk_domain.clock                          1000                       # Clock period in ticks
system.mem_ctrls.pwrStateResidencyTicks::UNDEFINED  15267344125                       # Cumulative time (in ticks) in various power states
system.mem_ctrls.bytes_read::cpu0.data         914368                       # Number of bytes read from this memory
system.mem_ctrls.bytes_read::total             914368                       # Number of bytes read from this memory
system.mem_ctrls.bytes_written::writebacks       852416                       # Number of bytes written to this memory
system.mem_ctrls.bytes_written::total          852416                       # Number of bytes written to this memory
system.mem_ctrls.num_reads::cpu0.data           14287                       # Number of read requests responded to by this memory
system.mem_ctrls.num_reads::total               14287                       # Number of read requests responded to by this memory
system.mem_ctrls.num_writes::writebacks         13319                       # Number of write requests responded to by this memory
system.mem_ctrls.num_writes::total              13319                       # Number of write requests responded to by this memory
system.mem_ctrls.bw_read::cpu0.data          59890443                       # Total read bandwidth from this memory (bytes/s)
system.mem_ctrls.bw_read::total              59890443                       # Total read bandwidth from this memory (bytes/s)
system.mem_ctrls.bw_write::writebacks        55832632                       # Write bandwidth from this memory (bytes/s)
system.mem_ctrls.bw_write::total             55832632                       # Write bandwidth from this memory (bytes/s)
system.mem_ctrls.bw_total::writebacks        55832632                       # Total bandwidth to/from this memory (bytes/s)
system.mem_ctrls.bw_total::cpu0.data         59890443                       # Total bandwidth to/from this memory (bytes/s)
system.mem_ctrls.bw_total::total            115723074                       # Total bandwidth to/from this memory (bytes/s)
system.mem_ctrls.readReqs                       14287                       # Number of read requests accepted
system.mem_ctrls.writeReqs                      13319                       # Number of write requests accepted
system.mem_ctrls.readBursts                     14287                       # Number of DRAM read bursts, including those serviced by the write queue
system.mem_ctrls.writeBursts                    13319                       # Number of DRAM write bursts, including those merged in the write queue
system.mem_ctrls.bytesReadDRAM                 914368                       # Total number of bytes read from DRAM
system.mem_ctrls.bytesReadWrQ                       0                       # Total number of bytes read from write queue
system.mem_ctrls.bytesWritten                  852288                       # Total number of bytes written to DRAM
system.mem_ctrls.bytesReadSys                  914368                       # Total read bytes from the system interface side
system.mem_ctrls.bytesWrittenSys               852416                       # Total written bytes from the system interface side
system.mem_ctrls.servicedByWrQ                      0                       # Number of DRAM read bursts serviced by the write queue
system.mem_ctrls.mergedWrBursts                     0                       # Number of DRAM write bursts merged with an existing one
system.mem_ctrls.neitherReadNorWriteReqs            0                       # Number of requests that are neither read nor write
system.mem_ctrls.perBankRdBursts::0               867                       # Per bank write bursts
system.mem_ctrls.perBankRdBursts::1               896                       # Per bank write bursts
system.mem_ctrls.perBankRdBursts::2               896                       # Per bank write bursts
system.mem_ctrls.perBankRdBursts::3               777                       # Per bank write bursts
system.mem_ctrls.perBankRdBursts::4               846                       # Per bank write bursts
system.mem_ctrls.perBankRdBursts::5               919                       # Per bank write bursts
system.mem_ctrls.perBankRdBursts::6               896                       # Per bank write bursts
system.mem_ctrls.perBankRdBursts::7               898                       # Per bank write bursts
system.mem_ctrls.perBankRdBursts::8               896                       # Per bank write bursts
system.mem_ctrls.perBankRdBursts::9               897                       # Per bank write bursts
system.mem_ctrls.perBankRdBursts::10             1001                       # Per bank write bursts
system.mem_ctrls.perBankRdBursts::11              898                       # Per bank write bursts
system.mem_ctrls.perBankRdBursts::12              896                       # Per bank write bursts
system.mem_ctrls.perBankRdBursts::13              896                       # Per bank write bursts
system.mem_ctrls.perBankRdBursts::14              896                       # Per bank write bursts
system.mem_ctrls.perBankRdBursts::15              912                       # Per bank write bursts
system.mem_ctrls.perBankWrBursts::0               860                       # Per bank write bursts
system.mem_ctrls.perBankWrBursts::1               891                       # Per bank write bursts
system.mem_ctrls.perBankWrBursts::2               896                       # Per bank write bursts
system.mem_ctrls.perBankWrBursts::3               754                       # Per bank write bursts
system.mem_ctrls.perBankWrBursts::4               837                       # Per bank write bursts
system.mem_ctrls.perBankWrBursts::5               800                       # Per bank write bursts
system.mem_ctrls.perBankWrBursts::6               853                       # Per bank write bursts
system.mem_ctrls.perBankWrBursts::7               775                       # Per bank write bursts
system.mem_ctrls.perBankWrBursts::8               773                       # Per bank write bursts
system.mem_ctrls.perBankWrBursts::9               747                       # Per bank write bursts
system.mem_ctrls.perBankWrBursts::10              854                       # Per bank write bursts
system.mem_ctrls.perBankWrBursts::11              769                       # Per bank write bursts
system.mem_ctrls.perBankWrBursts::12              835                       # Per bank write bursts
system.mem_ctrls.perBankWrBursts::13              895                       # Per bank write bursts
system.mem_ctrls.perBankWrBursts::14              874                       # Per bank write bursts
system.mem_ctrls.perBankWrBursts::15              904                       # Per bank write bursts
system.mem_ctrls.numRdRetry                         0                       # Number of times read queue was full causing retry
system.mem_ctrls.numWrRetry                         0                       # Number of times write queue was full causing retry
system.mem_ctrls.totGap                   15266844000                       # Total gap between requests
system.mem_ctrls.readPktSize::0                     0                       # Read request sizes (log2)
system.mem_ctrls.readPktSize::1                     0                       # Read request sizes (log2)
system.mem_ctrls.readPktSize::2                     0                       # Read request sizes (log2)
system.mem_ctrls.readPktSize::3                     0                       # Read request sizes (log2)
system.mem_ctrls.readPktSize::4                     0                       # Read request sizes (log2)
system.mem_ctrls.readPktSize::5                     0                       # Read request sizes (log2)
system.mem_ctrls.readPktSize::6                 14287                       # Read request sizes (log2)
system.mem_ctrls.writePktSize::0                    0                       # Write request sizes (log2)
system.mem_ctrls.writePktSize::1                    0                       # Write request sizes (log2)
system.mem_ctrls.writePktSize::2                    0                       # Write request sizes (log2)
system.mem_ctrls.writePktSize::3                    0                       # Write request sizes (log2)
system.mem_ctrls.writePktSize::4                    0                       # Write request sizes (log2)
system.mem_ctrls.writePktSize::5                    0                       # Write request sizes (log2)
system.mem_ctrls.writePktSize::6                13319                       # Write request sizes (log2)
system.mem_ctrls.rdQLenPdf::0                   14287                       # What read queue length does an incoming req see
system.mem_ctrls.rdQLenPdf::1                       0                       # What read queue length does an incoming req see
system.mem_ctrls.rdQLenPdf::2                       0                       # What read queue length does an incoming req see
system.mem_ctrls.rdQLenPdf::3                       0                       # What read queue length does an incoming req see
system.mem_ctrls.rdQLenPdf::4                       0                       # What read queue length does an incoming req see
system.mem_ctrls.rdQLenPdf::5                       0                       # What read queue length does an incoming req see
system.mem_ctrls.rdQLenPdf::6                       0                       # What read queue length does an incoming req see
system.mem_ctrls.rdQLenPdf::7                       0                       # What read queue length does an incoming req see
system.mem_ctrls.rdQLenPdf::8                       0                       # What read queue length does an incoming req see
system.mem_ctrls.rdQLenPdf::9                       0                       # What read queue length does an incoming req see
system.mem_ctrls.rdQLenPdf::10                      0                       # What read queue length does an incoming req see
system.mem_ctrls.rdQLenPdf::11                      0                       # What read queue length does an incoming req see
system.mem_ctrls.rdQLenPdf::12                      0                       # What read queue length does an incoming req see
system.mem_ctrls.rdQLenPdf::13                      0                       # What read queue length does an incoming req see
system.mem_ctrls.rdQLenPdf::14                      0                       # What read queue length does an incoming req see
system.mem_ctrls.rdQLenPdf::15                      0                       # What read queue length does an incoming req see
system.mem_ctrls.rdQLenPdf::16                      0                       # What read queue length does an incoming req see
system.mem_ctrls.rdQLenPdf::17                      0                       # What read queue length does an incoming req see
system.mem_ctrls.rdQLenPdf::18                      0                       # What read queue length does an incoming req see
system.mem_ctrls.rdQLenPdf::19                      0                       # What read queue length does an incoming req see
system.mem_ctrls.rdQLenPdf::20                      0                       # What read queue length does an incoming req see
system.mem_ctrls.rdQLenPdf::21                      0                       # What read queue length does an incoming req see
system.mem_ctrls.rdQLenPdf::22                      0                       # What read queue length does an incoming req see
system.mem_ctrls.rdQLenPdf::23                      0                       # What read queue length does an incoming req see
system.mem_ctrls.rdQLenPdf::24                      0                       # What read queue length does an incoming req see
system.mem_ctrls.rdQLenPdf::25                      0                       # What read queue length does an incoming req see
system.mem_ctrls.rdQLenPdf::26                      0                       # What read queue length does an incoming req see
system.mem_ctrls.rdQLenPdf::27                      0                       # What read queue length does an incoming req see
system.mem_ctrls.rdQLenPdf::28                      0                       # What read queue length does an incoming req see
system.mem_ctrls.rdQLenPdf::29                      0                       # What read queue length does an incoming req see
system.mem_ctrls.rdQLenPdf::30                      0                       # What read queue length does an incoming req see
system.mem_ctrls.rdQLenPdf::31                      0                       # What read queue length does an incoming req see
system.mem_ctrls.wrQLenPdf::0                       0                       # What write queue length does an incoming req see
system.mem_ctrls.wrQLenPdf::1                       0                       # What write queue length does an incoming req see
system.mem_ctrls.wrQLenPdf::2                       0                       # What write queue length does an incoming req see
system.mem_ctrls.wrQLenPdf::3                       0                       # What write queue length does an incoming req see
system.mem_ctrls.wrQLenPdf::4                       0                       # What write queue length does an incoming req see
system.mem_ctrls.wrQLenPdf::5                       0                       # What write queue length does an incoming req see
system.mem_ctrls.wrQLenPdf::6                       0                       # What write queue length does an incoming req see
system.mem_ctrls.wrQLenPdf::7                       0                       # What write queue length does an incoming req see
system.mem_ctrls.wrQLenPdf::8                       0                       # What write queue length does an incoming req see
system.mem_ctrls.wrQLenPdf::9                       0                       # What write queue length does an incoming req see
system.mem_ctrls.wrQLenPdf::10                      0                       # What write queue length does an incoming req see
system.mem_ctrls.wrQLenPdf::11                      0                       # What write queue length does an incoming req see
system.mem_ctrls.wrQLenPdf::12                      0                       # What write queue length does an incoming req see
system.mem_ctrls.wrQLenPdf::13                      0                       # What write queue length does an incoming req see
system.mem_ctrls.wrQLenPdf::14                      0                       # What write queue length does an incoming req see
system.mem_ctrls.wrQLenPdf::15                    722                       # What write queue length does an incoming req see
system.mem_ctrls.wrQLenPdf::16                    723                       # What write queue length does an incoming req see
system.mem_ctrls.wrQLenPdf::17                    742                       # What write queue length does an incoming req see
system.mem_ctrls.wrQLenPdf::18                    742                       # What write queue length does an incoming req see
system.mem_ctrls.wrQLenPdf::19                    742                       # What write queue length does an incoming req see
system.mem_ctrls.wrQLenPdf::20                    742                       # What write queue length does an incoming req see
system.mem_ctrls.wrQLenPdf::21                    742                       # What write queue length does an incoming req see
system.mem_ctrls.wrQLenPdf::22                    742                       # What write queue length does an incoming req see
system.mem_ctrls.wrQLenPdf::23                    742                       # What write queue length does an incoming req see
system.mem_ctrls.wrQLenPdf::24                    743                       # What write queue length does an incoming req see
system.mem_ctrls.wrQLenPdf::25                    743                       # What write queue length does an incoming req see
system.mem_ctrls.wrQLenPdf::26                    742                       # What write queue length does an incoming req see
system.mem_ctrls.wrQLenPdf::27                    742                       # What write queue length does an incoming req see
system.mem_ctrls.wrQLenPdf::28                    742                       # What write queue length does an incoming req see
system.mem_ctrls.wrQLenPdf::29                    742                       # What write queue length does an incoming req see
system.mem_ctrls.wrQLenPdf::30                    742                       # What write queue length does an incoming req see
system.mem_ctrls.wrQLenPdf::31                    742                       # What write queue length does an incoming req see
system.mem_ctrls.wrQLenPdf::32                    742                       # What write queue length does an incoming req see
system.mem_ctrls.wrQLenPdf::33                      0                       # What write queue length does an incoming req see
system.mem_ctrls.wrQLenPdf::34                      0                       # What write queue length does an incoming req see
system.mem_ctrls.wrQLenPdf::35                      0                       # What write queue length does an incoming req see
system.mem_ctrls.wrQLenPdf::36                      0                       # What write queue length does an incoming req see
system.mem_ctrls.wrQLenPdf::37                      0                       # What write queue length does an incoming req see
system.mem_ctrls.wrQLenPdf::38                      0                       # What write queue length does an incoming req see
system.mem_ctrls.wrQLenPdf::39                      0                       # What write queue length does an incoming req see
system.mem_ctrls.wrQLenPdf::40                      0                       # What write queue length does an incoming req see
system.mem_ctrls.wrQLenPdf::41                      0                       # What write queue length does an incoming req see
system.mem_ctrls.wrQLenPdf::42                      0                       # What write queue length does an incoming req see
system.mem_ctrls.wrQLenPdf::43                      0                       # What write queue length does an incoming req see
system.mem_ctrls.wrQLenPdf::44                      0                       # What write queue length does an incoming req see
system.mem_ctrls.wrQLenPdf::45                      0                       # What write queue length does an incoming req see
system.mem_ctrls.wrQLenPdf::46                      0                       # What write queue length does an incoming req see
system.mem_ctrls.wrQLenPdf::47                      0                       # What write queue length does an incoming req see
system.mem_ctrls.wrQLenPdf::48                      0                       # What write queue length does an incoming req see
system.mem_ctrls.wrQLenPdf::49                      0                       # What write queue length does an incoming req see
system.mem_ctrls.wrQLenPdf::50                      0                       # What write queue length does an incoming req see
system.mem_ctrls.wrQLenPdf::51                      0                       # What write queue length does an incoming req see
system.mem_ctrls.wrQLenPdf::52                      0                       # What write queue length does an incoming req see
system.mem_ctrls.wrQLenPdf::53                      0                       # What write queue length does an incoming req see
system.mem_ctrls.wrQLenPdf::54                      0                       # What write queue length does an incoming req see
system.mem_ctrls.wrQLenPdf::55                      0                       # What write queue length does an incoming req see
system.mem_ctrls.wrQLenPdf::56                      0                       # What write queue length does an incoming req see
system.mem_ctrls.wrQLenPdf::57                      0                       # What write queue length does an incoming req see
system.mem_ctrls.wrQLenPdf::58                      0                       # What write queue length does an incoming req see
system.mem_ctrls.wrQLenPdf::59                      0                       # What write queue length does an incoming req see
system.mem_ctrls.wrQLenPdf::60                      0                       # What write queue length does an incoming req see
system.mem_ctrls.wrQLenPdf::61                      0                       # What write queue length does an incoming req see
system.mem_ctrls.wrQLenPdf::62                      0                       # What write queue length does an incoming req see
system.mem_ctrls.wrQLenPdf::63                      0                       # What write queue length does an incoming req see
system.mem_ctrls.bytesPerActivate::samples         6016                       # Bytes accessed per row activation
system.mem_ctrls.bytesPerActivate::mean    293.723404                       # Bytes accessed per row activation
system.mem_ctrls.bytesPerActivate::gmean   182.676232                       # Bytes accessed per row activation
system.mem_ctrls.bytesPerActivate::stdev   288.472667                       # Bytes accessed per row activation
system.mem_ctrls.bytesPerActivate::0-127         2414     40.13%     40.13% # Bytes accessed per row activation
system.mem_ctrls.bytesPerActivate::128-255          824     13.70%     53.82% # Bytes accessed per row activation
system.mem_ctrls.bytesPerActivate::256-383          564      9.38%     63.20% # Bytes accessed per row activation
system.mem_ctrls.bytesPerActivate::384-511         1460     24.27%     87.47% # Bytes accessed per row activation
system.mem_ctrls.bytesPerActivate::512-639           41      0.68%     88.15% # Bytes accessed per row activation
system.mem_ctrls.bytesPerActivate::640-767           54      0.90%     89.05% # Bytes accessed per row activation
system.mem_ctrls.bytesPerActivate::768-895           65      1.08%     90.13% # Bytes accessed per row activation
system.mem_ctrls.bytesPerActivate::896-1023          106      1.76%     91.89% # Bytes accessed per row activation
system.mem_ctrls.bytesPerActivate::1024-1151          488      8.11%    100.00% # Bytes accessed per row activation
system.mem_ctrls.bytesPerActivate::total         6016                       # Bytes accessed per row activation
system.mem_ctrls.rdPerTurnAround::samples          742                       # Reads before turning the bus around for writes
system.mem_ctrls.rdPerTurnAround::mean      19.252022                       # Reads before turning the bus around for writes
system.mem_ctrls.rdPerTurnAround::gmean     18.467300                       # Reads before turning the bus around for writes
system.mem_ctrls.rdPerTurnAround::stdev     11.615516                       # Reads before turning the bus around for writes
system.mem_ctrls.rdPerTurnAround::16-23           720     97.04%     97.04% # Reads before turning the bus around for writes
system.mem_ctrls.rdPerTurnAround::24-31            12      1.62%     98.65% # Reads before turning the bus around for writes
system.mem_ctrls.rdPerTurnAround::32-39             2      0.27%     98.92% # Reads before turning the bus around for writes
system.mem_ctrls.rdPerTurnAround::56-63             1      0.13%     99.06% # Reads before turning the bus around for writes
system.mem_ctrls.rdPerTurnAround::72-79             1      0.13%     99.19% # Reads before turning the bus around for writes
system.mem_ctrls.rdPerTurnAround::104-111            3      0.40%     99.60% # Reads before turning the bus around for writes
system.mem_ctrls.rdPerTurnAround::136-143            1      0.13%     99.73% # Reads before turning the bus around for writes
system.mem_ctrls.rdPerTurnAround::160-167            1      0.13%     99.87% # Reads before turning the bus around for writes
system.mem_ctrls.rdPerTurnAround::192-199            1      0.13%    100.00% # Reads before turning the bus around for writes
system.mem_ctrls.rdPerTurnAround::total           742                       # Reads before turning the bus around for writes
system.mem_ctrls.wrPerTurnAround::samples          742                       # Writes before turning the bus around for reads
system.mem_ctrls.wrPerTurnAround::mean      17.947439                       # Writes before turning the bus around for reads
system.mem_ctrls.wrPerTurnAround::gmean     17.944411                       # Writes before turning the bus around for reads
system.mem_ctrls.wrPerTurnAround::stdev      0.318037                       # Writes before turning the bus around for reads
system.mem_ctrls.wrPerTurnAround::16               19      2.56%      2.56% # Writes before turning the bus around for reads
system.mem_ctrls.wrPerTurnAround::17                1      0.13%      2.70% # Writes before turning the bus around for reads
system.mem_ctrls.wrPerTurnAround::18              722     97.30%    100.00% # Writes before turning the bus around for reads
system.mem_ctrls.wrPerTurnAround::total           742                       # Writes before turning the bus around for reads
system.mem_ctrls.totQLat                    390890000                       # Total ticks spent queuing
system.mem_ctrls.totMemAccLat               658771250                       # Total ticks spent from burst creation until serviced by the DRAM
system.mem_ctrls.totBusLat                   71435000                       # Total ticks spent in databus transfers
system.mem_ctrls.avgQLat                     27359.84                       # Average queueing delay per DRAM burst
system.mem_ctrls.avgBusLat                    5000.00                       # Average bus latency per DRAM burst
system.mem_ctrls.avgMemAccLat                46109.84                       # Average memory access latency per DRAM burst
system.mem_ctrls.avgRdBW                        59.89                       # Average DRAM read bandwidth in MiByte/s
system.mem_ctrls.avgWrBW                        55.82                       # Average achieved write bandwidth in MiByte/s
system.mem_ctrls.avgRdBWSys                     59.89                       # Average system read bandwidth in MiByte/s
system.mem_ctrls.avgWrBWSys                     55.83                       # Average system write bandwidth in MiByte/s
system.mem_ctrls.peakBW                      12800.00                       # Theoretical peak bandwidth in MiByte/s
system.mem_ctrls.busUtil                         0.90                       # Data bus utilization in percentage
system.mem_ctrls.busUtilRead                     0.47                       # Data bus utilization in percentage for reads
system.mem_ctrls.busUtilWrite                    0.44                       # Data bus utilization in percentage for writes
system.mem_ctrls.avgRdQLen                       1.00                       # Average read queue length when enqueuing
system.mem_ctrls.avgWrQLen                      24.60                       # Average write queue length when enqueuing
system.mem_ctrls.readRowHits                    10379                       # Number of row buffer hits during reads
system.mem_ctrls.writeRowHits                   11210                       # Number of row buffer hits during writes
system.mem_ctrls.readRowHitRate                 72.65                       # Row buffer hit rate for reads
system.mem_ctrls.writeRowHitRate                84.17                       # Row buffer hit rate for writes
system.mem_ctrls.avgGap                     553026.30                       # Average gap between requests
system.mem_ctrls.pageHitRate                    78.20                       # Row buffer hit rate, read and write combined
system.mem_ctrls_0.actEnergy                 19763520                       # Energy for activate commands per rank (pJ)
system.mem_ctrls_0.preEnergy                 10508355                       # Energy for precharge commands per rank (pJ)
system.mem_ctrls_0.readEnergy                49944300                       # Energy for read commands per rank (pJ)
system.mem_ctrls_0.writeEnergy               34796520                       # Energy for write commands per rank (pJ)
system.mem_ctrls_0.refreshEnergy         1140771840.000000                       # Energy for refresh commands per rank (pJ)
system.mem_ctrls_0.actBackEnergy            659609700                       # Energy for active background per rank (pJ)
system.mem_ctrls_0.preBackEnergy             54003840                       # Energy for precharge background per rank (pJ)
system.mem_ctrls_0.actPowerDownEnergy      3442516710                       # Energy for active power-down per rank (pJ)
system.mem_ctrls_0.prePowerDownEnergy      1177816800                       # Energy for precharge power-down per rank (pJ)
system.mem_ctrls_0.selfRefreshEnergy        906455100                       # Energy for self refresh per rank (pJ)
system.mem_ctrls_0.totalEnergy             7496481705                       # Total energy per rank (pJ)
system.mem_ctrls_0.averagePower            491.014131                       # Core power per rank (mW)
system.mem_ctrls_0.totalIdleTime          13676660125                       # Total Idle time Per DRAM Rank
system.mem_ctrls_0.memoryStateTime::IDLE     90006000                       # Time in different power states
system.mem_ctrls_0.memoryStateTime::REF     484456000                       # Time in different power states
system.mem_ctrls_0.memoryStateTime::SREF   3062945000                       # Time in different power states
system.mem_ctrls_0.memoryStateTime::PRE_PDN   3067388000                       # Time in different power states
system.mem_ctrls_0.memoryStateTime::ACT    1013273000                       # Time in different power states
system.mem_ctrls_0.memoryStateTime::ACT_PDN   7549276125                       # Time in different power states
system.mem_ctrls_1.actEnergy                 23183580                       # Energy for activate commands per rank (pJ)
system.mem_ctrls_1.preEnergy                 12322365                       # Energy for precharge commands per rank (pJ)
system.mem_ctrls_1.readEnergy                52064880                       # Energy for read commands per rank (pJ)
system.mem_ctrls_1.writeEnergy               34718220                       # Energy for write commands per rank (pJ)
system.mem_ctrls_1.refreshEnergy         1302422160.000000                       # Energy for refresh commands per rank (pJ)
system.mem_ctrls_1.actBackEnergy            814702710                       # Energy for active background per rank (pJ)
system.mem_ctrls_1.preBackEnergy             67268160                       # Energy for precharge background per rank (pJ)
system.mem_ctrls_1.actPowerDownEnergy      3692554050                       # Energy for active power-down per rank (pJ)
system.mem_ctrls_1.prePowerDownEnergy      1486748160                       # Energy for precharge power-down per rank (pJ)
system.mem_ctrls_1.selfRefreshEnergy        516154860                       # Energy for self refresh per rank (pJ)
system.mem_ctrls_1.totalEnergy             8002268265                       # Total energy per rank (pJ)
system.mem_ctrls_1.averagePower            524.142785                       # Core power per rank (mW)
system.mem_ctrls_1.totalIdleTime          13305072375                       # Total Idle time Per DRAM Rank
system.mem_ctrls_1.memoryStateTime::IDLE    120207000                       # Time in different power states
system.mem_ctrls_1.memoryStateTime::REF     553070000                       # Time in different power states
system.mem_ctrls_1.memoryStateTime::SREF   1335801750                       # Time in different power states
system.mem_ctrls_1.memoryStateTime::PRE_PDN   3871783875                       # Time in different power states
system.mem_ctrls_1.memoryStateTime::ACT    1288833500                       # Time in different power states
system.mem_ctrls_1.memoryStateTime::ACT_PDN   8097648000                       # Time in different power states
system.pwrStateResidencyTicks::UNDEFINED  15267344125                       # Cumulative time (in ticks) in various power states
system.cpu0.branchPred.lookups                5255006                       # Number of BP lookups
system.cpu0.branchPred.condPredicted          5255006                       # Number of conditional branches predicted
system.cpu0.branchPred.condIncorrect           106035                       # Number of conditional branches incorrect
system.cpu0.branchPred.BTBLookups             4359916                       # Number of BTB lookups
system.cpu0.branchPred.BTBHits                      0                       # Number of BTB hits
system.cpu0.branchPred.BTBCorrect                   0                       # Number of correct BTB predictions (this stat may not work properly.
system.cpu0.branchPred.BTBHitPct             0.000000                       # BTB Hit Percentage
system.cpu0.branchPred.usedRAS                 731252                       # Number of times the RAS was used to get a target.
system.cpu0.branchPred.RASInCorrect               127                       # Number of incorrect RAS predictions.
system.cpu0.branchPred.indirectLookups        4359916                       # Number of indirect predictor lookups.
system.cpu0.branchPred.indirectHits           2568137                       # Number of indirect target hits.
system.cpu0.branchPred.indirectMisses         1791779                       # Number of indirect misses.
system.cpu0.branchPredindirectMispredicted          114                       # Number of mispredicted indirect branches.
system.cpu_voltage_domain.voltage                   1                       # Voltage in Volts
system.cpu_clk_domain.clock                       500                       # Clock period in ticks
system.cpu0.dtb.walker.pwrStateResidencyTicks::UNDEFINED  15267344125                       # Cumulative time (in ticks) in various power states
system.cpu0.dtb.rdAccesses                    8893327                       # TLB accesses on read requests
system.cpu0.dtb.wrAccesses                    2106037                       # TLB accesses on write requests
system.cpu0.dtb.rdMisses                          505                       # TLB misses on read requests
system.cpu0.dtb.wrMisses                            0                       # TLB misses on write requests
system.cpu0.apic_clk_domain.clock                8000                       # Clock period in ticks
system.cpu0.interrupts.pwrStateResidencyTicks::UNDEFINED  15267344125                       # Cumulative time (in ticks) in various power states
system.cpu0.itb.walker.pwrStateResidencyTicks::UNDEFINED  15267344125                       # Cumulative time (in ticks) in various power states
system.cpu0.itb.rdAccesses                          0                       # TLB accesses on read requests
system.cpu0.itb.wrAccesses                    6250245                       # TLB accesses on write requests
system.cpu0.itb.rdMisses                            0                       # TLB misses on read requests
system.cpu0.itb.wrMisses                            2                       # TLB misses on write requests
system.cpu0.workload.numSyscalls                    0                       # Number of system calls
system.cpu0.pwrStateResidencyTicks::ON    15267344125                       # Cumulative time (in ticks) in various power states
system.cpu0.numCycles                        30534688                       # number of cpu cycles simulated
system.cpu0.numWorkItemsStarted                     0                       # number of work items this cpu started
system.cpu0.numWorkItemsCompleted                   0                       # number of work items this cpu completed
system.cpu0.fetch.icacheStallCycles           6323794                       # Number of cycles fetch is stalled on an Icache miss
system.cpu0.fetch.Insts                      46199791                       # Number of instructions fetch has processed
system.cpu0.fetch.Branches                    5255006                       # Number of branches that fetch encountered
system.cpu0.fetch.predictedBranches           3299389                       # Number of branches that fetch has predicted taken
system.cpu0.fetch.Cycles                     24104733                       # Number of cycles fetch has run and was not squashing or blocked
system.cpu0.fetch.SquashCycles                 212296                       # Number of cycles fetch has spent squashing
system.cpu0.fetch.PendingTrapStallCycles           13                       # Number of stall cycles due to pending traps
system.cpu0.fetch.CacheLines                  6250243                       # Number of cache lines fetched
system.cpu0.fetch.IcacheSquashes                32489                       # Number of outstanding Icache misses that were squashed
system.cpu0.fetch.rateDist::samples          30534688                       # Number of instructions fetched each cycle (Total)
system.cpu0.fetch.rateDist::mean             2.645056                       # Number of instructions fetched each cycle (Total)
system.cpu0.fetch.rateDist::stdev            3.349770                       # Number of instructions fetched each cycle (Total)
system.cpu0.fetch.rateDist::underflows              0      0.00%      0.00% # Number of instructions fetched each cycle (Total)
system.cpu0.fetch.rateDist::0                16754526     54.87%     54.87% # Number of instructions fetched each cycle (Total)
system.cpu0.fetch.rateDist::1                  660461      2.16%     57.03% # Number of instructions fetched each cycle (Total)
system.cpu0.fetch.rateDist::2                 1675053      5.49%     62.52% # Number of instructions fetched each cycle (Total)
system.cpu0.fetch.rateDist::3                  725138      2.37%     64.89% # Number of instructions fetched each cycle (Total)
system.cpu0.fetch.rateDist::4                 1085021      3.55%     68.45% # Number of instructions fetched each cycle (Total)
system.cpu0.fetch.rateDist::5                 1624391      5.32%     73.77% # Number of instructions fetched each cycle (Total)
system.cpu0.fetch.rateDist::6                  599182      1.96%     75.73% # Number of instructions fetched each cycle (Total)
system.cpu0.fetch.rateDist::7                  764480      2.50%     78.23% # Number of instructions fetched each cycle (Total)
system.cpu0.fetch.rateDist::8                 6646436     21.77%    100.00% # Number of instructions fetched each cycle (Total)
system.cpu0.fetch.rateDist::overflows               0      0.00%    100.00% # Number of instructions fetched each cycle (Total)
system.cpu0.fetch.rateDist::min_value               0                       # Number of instructions fetched each cycle (Total)
system.cpu0.fetch.rateDist::max_value               8                       # Number of instructions fetched each cycle (Total)
system.cpu0.fetch.rateDist::total            30534688                       # Number of instructions fetched each cycle (Total)
system.cpu0.fetch.branchRate                 0.172100                       # Number of branch fetches per cycle
system.cpu0.fetch.rate                       1.513026                       # Number of inst fetches per cycle
system.cpu0.decode.IdleCycles                 4072669                       # Number of cycles decode is idle
system.cpu0.decode.BlockedCycles             15842707                       # Number of cycles decode is blocked
system.cpu0.decode.RunCycles                  6088265                       # Number of cycles decode is running
system.cpu0.decode.UnblockCycles              4424899                       # Number of cycles decode is unblocking
system.cpu0.decode.SquashCycles                106148                       # Number of cycles decode is squashing
system.cpu0.decode.DecodedInsts              77462484                       # Number of instructions handled by decode
system.cpu0.rename.SquashCycles                106148                       # Number of cycles rename is squashing
system.cpu0.rename.IdleCycles                 5786687                       # Number of cycles rename is idle
system.cpu0.rename.BlockCycles                5714923                       # Number of cycles rename is blocking
system.cpu0.rename.serializeStallCycles             5                       # count of cycles rename stalled for serializing inst
system.cpu0.rename.RunCycles                  8738407                       # Number of cycles rename is running
system.cpu0.rename.UnblockCycles             10188518                       # Number of cycles rename is unblocking
system.cpu0.rename.RenamedInsts              76814758                       # Number of instructions processed by rename
system.cpu0.rename.ROBFullEvents               230277                       # Number of times rename has blocked due to ROB full
system.cpu0.rename.IQFullEvents               9113238                       # Number of times rename has blocked due to IQ full
system.cpu0.rename.RenamedOperands           82553954                       # Number of destination operands rename has renamed
system.cpu0.rename.RenameLookups            182574955                       # Number of register rename lookups that rename has made
system.cpu0.rename.int_rename_lookups        60193313                       # Number of integer rename lookups
system.cpu0.rename.fp_rename_lookups         74727556                       # Number of floating rename lookups
system.cpu0.rename.CommittedMaps             70610043                       # Number of HB maps that are committed
system.cpu0.rename.UndoneMaps                11943927                       # Number of HB maps that are undone due to squashing
system.cpu0.rename.serializingInsts                 5                       # count of serializing insts renamed
system.cpu0.rename.tempSerializingInsts             5                       # count of temporary serializing insts renamed
system.cpu0.rename.skidInsts                 23502595                       # count of insts added to the skid buffer
system.cpu0.memDep0.insertedLoads             9462393                       # Number of loads inserted to the mem dependence unit.
system.cpu0.memDep0.insertedStores            2111068                       # Number of stores inserted to the mem dependence unit.
system.cpu0.memDep0.conflictingLoads           426777                       # Number of conflicting loads.
system.cpu0.memDep0.conflictingStores          184991                       # Number of conflicting stores.
system.cpu0.iq.iqInstsAdded                  76217867                       # Number of instructions added to the IQ (excludes non-spec)
system.cpu0.iq.iqInstsIssued                 70734673                       # Number of instructions issued
system.cpu0.iq.iqSquashedInstsIssued              242                       # Number of squashed instructions issued
system.cpu0.iq.iqSquashedInstsExamined       10212900                       # Number of squashed instructions iterated over during squash; mainly for profiling
system.cpu0.iq.iqSquashedOperandsExamined     14797872                       # Number of squashed operands that are examined and possibly removed from graph
system.cpu0.iq.issued_per_cycle::samples     30534688                       # Number of insts issued each cycle
system.cpu0.iq.issued_per_cycle::mean        2.316535                       # Number of insts issued each cycle
system.cpu0.iq.issued_per_cycle::stdev       1.964797                       # Number of insts issued each cycle
system.cpu0.iq.issued_per_cycle::underflows            0      0.00%      0.00% # Number of insts issued each cycle
system.cpu0.iq.issued_per_cycle::0            6429416     21.06%     21.06% # Number of insts issued each cycle
system.cpu0.iq.issued_per_cycle::1            5999831     19.65%     40.71% # Number of insts issued each cycle
system.cpu0.iq.issued_per_cycle::2            5665184     18.55%     59.26% # Number of insts issued each cycle
system.cpu0.iq.issued_per_cycle::3            4878698     15.98%     75.24% # Number of insts issued each cycle
system.cpu0.iq.issued_per_cycle::4            3010253      9.86%     85.09% # Number of insts issued each cycle
system.cpu0.iq.issued_per_cycle::5            1979589      6.48%     91.58% # Number of insts issued each cycle
system.cpu0.iq.issued_per_cycle::6            1544208      5.06%     96.63% # Number of insts issued each cycle
system.cpu0.iq.issued_per_cycle::7             655897      2.15%     98.78% # Number of insts issued each cycle
system.cpu0.iq.issued_per_cycle::8             371612      1.22%    100.00% # Number of insts issued each cycle
system.cpu0.iq.issued_per_cycle::overflows            0      0.00%    100.00% # Number of insts issued each cycle
system.cpu0.iq.issued_per_cycle::min_value            0                       # Number of insts issued each cycle
system.cpu0.iq.issued_per_cycle::max_value            8                       # Number of insts issued each cycle
system.cpu0.iq.issued_per_cycle::total       30534688                       # Number of insts issued each cycle
system.cpu0.iq.fu_full::No_OpClass                  0      0.00%      0.00% # attempts to use FU when none available
system.cpu0.iq.fu_full::IntAlu                    948      0.93%      0.93% # attempts to use FU when none available
system.cpu0.iq.fu_full::IntMult                     0      0.00%      0.93% # attempts to use FU when none available
system.cpu0.iq.fu_full::IntDiv                      0      0.00%      0.93% # attempts to use FU when none available
system.cpu0.iq.fu_full::FloatAdd               100907     98.53%     99.46% # attempts to use FU when none available
system.cpu0.iq.fu_full::FloatCmp                    0      0.00%     99.46% # attempts to use FU when none available
system.cpu0.iq.fu_full::FloatCvt                    0      0.00%     99.46% # attempts to use FU when none available
system.cpu0.iq.fu_full::FloatMult                   0      0.00%     99.46% # attempts to use FU when none available
system.cpu0.iq.fu_full::FloatMultAcc                0      0.00%     99.46% # attempts to use FU when none available
system.cpu0.iq.fu_full::FloatDiv                    0      0.00%     99.46% # attempts to use FU when none available
system.cpu0.iq.fu_full::FloatMisc                   0      0.00%     99.46% # attempts to use FU when none available
system.cpu0.iq.fu_full::FloatSqrt                   0      0.00%     99.46% # attempts to use FU when none available
system.cpu0.iq.fu_full::SimdAdd                     0      0.00%     99.46% # attempts to use FU when none available
system.cpu0.iq.fu_full::SimdAddAcc                  0      0.00%     99.46% # attempts to use FU when none available
system.cpu0.iq.fu_full::SimdAlu                     0      0.00%     99.46% # attempts to use FU when none available
system.cpu0.iq.fu_full::SimdCmp                     0      0.00%     99.46% # attempts to use FU when none available
system.cpu0.iq.fu_full::SimdCvt                     0      0.00%     99.46% # attempts to use FU when none available
system.cpu0.iq.fu_full::SimdMisc                    0      0.00%     99.46% # attempts to use FU when none available
system.cpu0.iq.fu_full::SimdMult                    0      0.00%     99.46% # attempts to use FU when none available
system.cpu0.iq.fu_full::SimdMultAcc                 0      0.00%     99.46% # attempts to use FU when none available
system.cpu0.iq.fu_full::SimdShift                   0      0.00%     99.46% # attempts to use FU when none available
system.cpu0.iq.fu_full::SimdShiftAcc                0      0.00%     99.46% # attempts to use FU when none available
system.cpu0.iq.fu_full::SimdSqrt                    0      0.00%     99.46% # attempts to use FU when none available
system.cpu0.iq.fu_full::SimdFloatAdd                0      0.00%     99.46% # attempts to use FU when none available
system.cpu0.iq.fu_full::SimdFloatAlu                0      0.00%     99.46% # attempts to use FU when none available
system.cpu0.iq.fu_full::SimdFloatCmp                0      0.00%     99.46% # attempts to use FU when none available
system.cpu0.iq.fu_full::SimdFloatCvt                0      0.00%     99.46% # attempts to use FU when none available
system.cpu0.iq.fu_full::SimdFloatDiv                0      0.00%     99.46% # attempts to use FU when none available
system.cpu0.iq.fu_full::SimdFloatMisc               0      0.00%     99.46% # attempts to use FU when none available
system.cpu0.iq.fu_full::SimdFloatMult               0      0.00%     99.46% # attempts to use FU when none available
system.cpu0.iq.fu_full::SimdFloatMultAcc            0      0.00%     99.46% # attempts to use FU when none available
system.cpu0.iq.fu_full::SimdFloatSqrt               0      0.00%     99.46% # attempts to use FU when none available
system.cpu0.iq.fu_full::MemRead                   284      0.28%     99.73% # attempts to use FU when none available
system.cpu0.iq.fu_full::MemWrite                   52      0.05%     99.79% # attempts to use FU when none available
system.cpu0.iq.fu_full::FloatMemRead                0      0.00%     99.79% # attempts to use FU when none available
system.cpu0.iq.fu_full::FloatMemWrite             220      0.21%    100.00% # attempts to use FU when none available
system.cpu0.iq.fu_full::IprAccess                   0      0.00%    100.00% # attempts to use FU when none available
system.cpu0.iq.fu_full::InstPrefetch                0      0.00%    100.00% # attempts to use FU when none available
system.cpu0.iq.FU_type_0::No_OpClass             6791      0.01%      0.01% # Type of FU issued
system.cpu0.iq.FU_type_0::IntAlu             36797479     52.02%     52.03% # Type of FU issued
system.cpu0.iq.FU_type_0::IntMult                   0      0.00%     52.03% # Type of FU issued
system.cpu0.iq.FU_type_0::IntDiv                    0      0.00%     52.03% # Type of FU issued
system.cpu0.iq.FU_type_0::FloatAdd           22954197     32.45%     84.48% # Type of FU issued
system.cpu0.iq.FU_type_0::FloatCmp                  0      0.00%     84.48% # Type of FU issued
system.cpu0.iq.FU_type_0::FloatCvt                  0      0.00%     84.48% # Type of FU issued
system.cpu0.iq.FU_type_0::FloatMult                 0      0.00%     84.48% # Type of FU issued
system.cpu0.iq.FU_type_0::FloatMultAcc              0      0.00%     84.48% # Type of FU issued
system.cpu0.iq.FU_type_0::FloatDiv                  0      0.00%     84.48% # Type of FU issued
system.cpu0.iq.FU_type_0::FloatMisc                 0      0.00%     84.48% # Type of FU issued
system.cpu0.iq.FU_type_0::FloatSqrt                 0      0.00%     84.48% # Type of FU issued
system.cpu0.iq.FU_type_0::SimdAdd                   0      0.00%     84.48% # Type of FU issued
system.cpu0.iq.FU_type_0::SimdAddAcc                0      0.00%     84.48% # Type of FU issued
system.cpu0.iq.FU_type_0::SimdAlu                   0      0.00%     84.48% # Type of FU issued
system.cpu0.iq.FU_type_0::SimdCmp                   0      0.00%     84.48% # Type of FU issued
system.cpu0.iq.FU_type_0::SimdCvt                   0      0.00%     84.48% # Type of FU issued
system.cpu0.iq.FU_type_0::SimdMisc                  0      0.00%     84.48% # Type of FU issued
system.cpu0.iq.FU_type_0::SimdMult                  0      0.00%     84.48% # Type of FU issued
system.cpu0.iq.FU_type_0::SimdMultAcc               0      0.00%     84.48% # Type of FU issued
system.cpu0.iq.FU_type_0::SimdShift                 0      0.00%     84.48% # Type of FU issued
system.cpu0.iq.FU_type_0::SimdShiftAcc              0      0.00%     84.48% # Type of FU issued
system.cpu0.iq.FU_type_0::SimdSqrt                  0      0.00%     84.48% # Type of FU issued
system.cpu0.iq.FU_type_0::SimdFloatAdd              0      0.00%     84.48% # Type of FU issued
system.cpu0.iq.FU_type_0::SimdFloatAlu              0      0.00%     84.48% # Type of FU issued
system.cpu0.iq.FU_type_0::SimdFloatCmp              0      0.00%     84.48% # Type of FU issued
system.cpu0.iq.FU_type_0::SimdFloatCvt              0      0.00%     84.48% # Type of FU issued
system.cpu0.iq.FU_type_0::SimdFloatDiv              0      0.00%     84.48% # Type of FU issued
system.cpu0.iq.FU_type_0::SimdFloatMisc             0      0.00%     84.48% # Type of FU issued
system.cpu0.iq.FU_type_0::SimdFloatMult             0      0.00%     84.48% # Type of FU issued
system.cpu0.iq.FU_type_0::SimdFloatMultAcc            0      0.00%     84.48% # Type of FU issued
system.cpu0.iq.FU_type_0::SimdFloatSqrt             0      0.00%     84.48% # Type of FU issued
system.cpu0.iq.FU_type_0::MemRead             1970776      2.79%     87.27% # Type of FU issued
system.cpu0.iq.FU_type_0::MemWrite            1477391      2.09%     89.36% # Type of FU issued
system.cpu0.iq.FU_type_0::FloatMemRead        6898600      9.75%     99.11% # Type of FU issued
system.cpu0.iq.FU_type_0::FloatMemWrite        629439      0.89%    100.00% # Type of FU issued
system.cpu0.iq.FU_type_0::IprAccess                 0      0.00%    100.00% # Type of FU issued
system.cpu0.iq.FU_type_0::InstPrefetch              0      0.00%    100.00% # Type of FU issued
system.cpu0.iq.FU_type_0::total              70734673                       # Type of FU issued
system.cpu0.iq.rate                          2.316535                       # Inst issue rate
system.cpu0.iq.fu_busy_cnt                     102411                       # FU busy when requested
system.cpu0.iq.fu_busy_rate                  0.001448                       # FU busy rate (busy events/executed inst)
system.cpu0.iq.int_inst_queue_reads          97539729                       # Number of integer instruction queue reads
system.cpu0.iq.int_inst_queue_writes         37375554                       # Number of integer instruction queue writes
system.cpu0.iq.int_inst_queue_wakeup_accesses     33420436                       # Number of integer instruction queue wakeup accesses
system.cpu0.iq.fp_inst_queue_reads           74566956                       # Number of floating instruction queue reads
system.cpu0.iq.fp_inst_queue_writes          49055326                       # Number of floating instruction queue writes
system.cpu0.iq.fp_inst_queue_wakeup_accesses     37065135                       # Number of floating instruction queue wakeup accesses
system.cpu0.iq.vec_inst_queue_reads                 0                       # Number of vector instruction queue reads
system.cpu0.iq.vec_inst_queue_writes                0                       # Number of vector instruction queue writes
system.cpu0.iq.vec_inst_queue_wakeup_accesses            0                       # Number of vector instruction queue wakeup accesses
system.cpu0.iq.int_alu_accesses              33496243                       # Number of integer alu accesses
system.cpu0.iq.fp_alu_accesses               37334050                       # Number of floating point alu accesses
system.cpu0.iq.vec_alu_accesses                     0                       # Number of vector alu accesses
system.cpu0.iew.lsq.thread0.forwLoads          420646                       # Number of loads that had data forwarded from stores
system.cpu0.iew.lsq.thread0.invAddrLoads            0                       # Number of loads ignored due to an invalid address
system.cpu0.iew.lsq.thread0.squashedLoads      1337916                       # Number of loads squashed
system.cpu0.iew.lsq.thread0.ignoredResponses            5                       # Number of memory responses ignored because the instruction is squashed
system.cpu0.iew.lsq.thread0.memOrderViolation          113                       # Number of memory ordering violations
system.cpu0.iew.lsq.thread0.squashedStores         8857                       # Number of stores squashed
system.cpu0.iew.lsq.thread0.invAddrSwpfs            0                       # Number of software prefetches ignored due to an invalid address
system.cpu0.iew.lsq.thread0.blockedLoads            0                       # Number of blocked loads due to partial load-store forwarding
system.cpu0.iew.lsq.thread0.rescheduledLoads            0                       # Number of loads that were rescheduled
system.cpu0.iew.lsq.thread0.cacheBlocked            0                       # Number of times an access to memory failed due to the cache being blocked
system.cpu0.iew.iewIdleCycles                       0                       # Number of cycles IEW is idle
system.cpu0.iew.iewSquashCycles                106148                       # Number of cycles IEW is squashing
system.cpu0.iew.iewBlockCycles                3365542                       # Number of cycles IEW is blocking
system.cpu0.iew.iewUnblockCycles               149361                       # Number of cycles IEW is unblocking
system.cpu0.iew.iewDispatchedInsts           76217867                       # Number of instructions dispatched to IQ
system.cpu0.iew.iewDispSquashedInsts                1                       # Number of squashed instructions skipped by dispatch
system.cpu0.iew.iewDispLoadInsts              9462393                       # Number of dispatched load instructions
system.cpu0.iew.iewDispStoreInsts             2111068                       # Number of dispatched store instructions
system.cpu0.iew.iewDispNonSpecInsts                 0                       # Number of dispatched non-speculative instructions
system.cpu0.iew.iewIQFullEvents                135866                       # Number of times the IQ has become full, causing a stall
system.cpu0.iew.iewLSQFullEvents                    0                       # Number of times the LSQ has become full, causing a stall
system.cpu0.iew.memOrderViolationEvents           113                       # Number of memory order violations
system.cpu0.iew.predictedTakenIncorrect         76055                       # Number of branches that were predicted taken incorrectly
system.cpu0.iew.predictedNotTakenIncorrect        30748                       # Number of branches that were predicted not taken incorrectly
system.cpu0.iew.branchMispredicts              106803                       # Number of branch mispredicts detected at execute
system.cpu0.iew.iewExecutedInsts             70498134                       # Number of executed instructions
system.cpu0.iew.iewExecLoadInsts              8866853                       # Number of load instructions executed
system.cpu0.iew.iewExecSquashedInsts           236537                       # Number of squashed instructions skipped in execute
system.cpu0.iew.exec_swp                            0                       # number of swp insts executed
system.cpu0.iew.exec_nop                            0                       # number of nop insts executed
system.cpu0.iew.exec_refs                    10972890                       # number of memory reference insts executed
system.cpu0.iew.exec_branches                 4726300                       # Number of branches executed
system.cpu0.iew.exec_stores                   2106037                       # Number of stores executed
system.cpu0.iew.exec_rate                    2.308788                       # Inst execution rate
system.cpu0.iew.wb_sent                      70491900                       # cumulative count of insts sent to commit
system.cpu0.iew.wb_count                     70485571                       # cumulative count of insts written-back
system.cpu0.iew.wb_producers                 52531790                       # num instructions producing a value
system.cpu0.iew.wb_consumers                 92503042                       # num instructions consuming a value
system.cpu0.iew.wb_rate                      2.308377                       # insts written-back per cycle
system.cpu0.iew.wb_fanout                    0.567893                       # average fanout of values written-back
system.cpu0.commit.commitSquashedInsts       10212900                       # The number of squashed insts skipped by commit
system.cpu0.commit.branchMispredicts           106035                       # The number of times a branch was mispredicted
system.cpu0.commit.committed_per_cycle::samples     29229340                       # Number of insts commited each cycle
system.cpu0.commit.committed_per_cycle::mean     2.258175                       # Number of insts commited each cycle
system.cpu0.commit.committed_per_cycle::stdev     2.864728                       # Number of insts commited each cycle
system.cpu0.commit.committed_per_cycle::underflows            0      0.00%      0.00% # Number of insts commited each cycle
system.cpu0.commit.committed_per_cycle::0     10975204     37.55%     37.55% # Number of insts commited each cycle
system.cpu0.commit.committed_per_cycle::1      7520861     25.73%     63.28% # Number of insts commited each cycle
system.cpu0.commit.committed_per_cycle::2      1058720      3.62%     66.90% # Number of insts commited each cycle
system.cpu0.commit.committed_per_cycle::3      2879635      9.85%     76.75% # Number of insts commited each cycle
system.cpu0.commit.committed_per_cycle::4      1141697      3.91%     80.66% # Number of insts commited each cycle
system.cpu0.commit.committed_per_cycle::5       217928      0.75%     81.40% # Number of insts commited each cycle
system.cpu0.commit.committed_per_cycle::6       422451      1.45%     82.85% # Number of insts commited each cycle
system.cpu0.commit.committed_per_cycle::7       566126      1.94%     84.79% # Number of insts commited each cycle
system.cpu0.commit.committed_per_cycle::8      4446718     15.21%    100.00% # Number of insts commited each cycle
system.cpu0.commit.committed_per_cycle::overflows            0      0.00%    100.00% # Number of insts commited each cycle
system.cpu0.commit.committed_per_cycle::min_value            0                       # Number of insts commited each cycle
system.cpu0.commit.committed_per_cycle::max_value            8                       # Number of insts commited each cycle
system.cpu0.commit.committed_per_cycle::total     29229340                       # Number of insts commited each cycle
system.cpu0.commit.committedInsts            37182445                       # Number of instructions committed
system.cpu0.commit.committedOps              66004966                       # Number of ops (including micro ops) committed
system.cpu0.commit.swp_count                        0                       # Number of s/w prefetches committed
system.cpu0.commit.refs                      10226686                       # Number of memory references committed
system.cpu0.commit.loads                      8124471                       # Number of loads committed
system.cpu0.commit.membars                          0                       # Number of memory barriers committed
system.cpu0.commit.branches                   4620483                       # Number of branches committed
system.cpu0.commit.vec_insts                        0                       # Number of committed Vector instructions.
system.cpu0.commit.fp_insts                  34132779                       # Number of committed floating point instructions.
system.cpu0.commit.int_insts                 40970745                       # Number of committed integer instructions.
system.cpu0.commit.function_calls              628535                       # Number of function calls committed.
system.cpu0.commit.op_class_0::No_OpClass         6002      0.01%      0.01% # Class of committed instruction
system.cpu0.commit.op_class_0::IntAlu        34306120     51.98%     51.98% # Class of committed instruction
system.cpu0.commit.op_class_0::IntMult              0      0.00%     51.98% # Class of committed instruction
system.cpu0.commit.op_class_0::IntDiv               0      0.00%     51.98% # Class of committed instruction
system.cpu0.commit.op_class_0::FloatAdd      21466158     32.52%     84.51% # Class of committed instruction
system.cpu0.commit.op_class_0::FloatCmp             0      0.00%     84.51% # Class of committed instruction
system.cpu0.commit.op_class_0::FloatCvt             0      0.00%     84.51% # Class of committed instruction
system.cpu0.commit.op_class_0::FloatMult            0      0.00%     84.51% # Class of committed instruction
system.cpu0.commit.op_class_0::FloatMultAcc            0      0.00%     84.51% # Class of committed instruction
system.cpu0.commit.op_class_0::FloatDiv             0      0.00%     84.51% # Class of committed instruction
system.cpu0.commit.op_class_0::FloatMisc            0      0.00%     84.51% # Class of committed instruction
system.cpu0.commit.op_class_0::FloatSqrt            0      0.00%     84.51% # Class of committed instruction
system.cpu0.commit.op_class_0::SimdAdd              0      0.00%     84.51% # Class of committed instruction
system.cpu0.commit.op_class_0::SimdAddAcc            0      0.00%     84.51% # Class of committed instruction
system.cpu0.commit.op_class_0::SimdAlu              0      0.00%     84.51% # Class of committed instruction
system.cpu0.commit.op_class_0::SimdCmp              0      0.00%     84.51% # Class of committed instruction
system.cpu0.commit.op_class_0::SimdCvt              0      0.00%     84.51% # Class of committed instruction
system.cpu0.commit.op_class_0::SimdMisc             0      0.00%     84.51% # Class of committed instruction
system.cpu0.commit.op_class_0::SimdMult             0      0.00%     84.51% # Class of committed instruction
system.cpu0.commit.op_class_0::SimdMultAcc            0      0.00%     84.51% # Class of committed instruction
system.cpu0.commit.op_class_0::SimdShift            0      0.00%     84.51% # Class of committed instruction
system.cpu0.commit.op_class_0::SimdShiftAcc            0      0.00%     84.51% # Class of committed instruction
system.cpu0.commit.op_class_0::SimdSqrt             0      0.00%     84.51% # Class of committed instruction
system.cpu0.commit.op_class_0::SimdFloatAdd            0      0.00%     84.51% # Class of committed instruction
system.cpu0.commit.op_class_0::SimdFloatAlu            0      0.00%     84.51% # Class of committed instruction
system.cpu0.commit.op_class_0::SimdFloatCmp            0      0.00%     84.51% # Class of committed instruction
system.cpu0.commit.op_class_0::SimdFloatCvt            0      0.00%     84.51% # Class of committed instruction
system.cpu0.commit.op_class_0::SimdFloatDiv            0      0.00%     84.51% # Class of committed instruction
system.cpu0.commit.op_class_0::SimdFloatMisc            0      0.00%     84.51% # Class of committed instruction
system.cpu0.commit.op_class_0::SimdFloatMult            0      0.00%     84.51% # Class of committed instruction
system.cpu0.commit.op_class_0::SimdFloatMultAcc            0      0.00%     84.51% # Class of committed instruction
system.cpu0.commit.op_class_0::SimdFloatSqrt            0      0.00%     84.51% # Class of committed instruction
system.cpu0.commit.op_class_0::MemRead        1953078      2.96%     87.47% # Class of committed instruction
system.cpu0.commit.op_class_0::MemWrite       1473677      2.23%     89.70% # Class of committed instruction
system.cpu0.commit.op_class_0::FloatMemRead      6171393      9.35%     99.05% # Class of committed instruction
system.cpu0.commit.op_class_0::FloatMemWrite       628538      0.95%    100.00% # Class of committed instruction
system.cpu0.commit.op_class_0::IprAccess            0      0.00%    100.00% # Class of committed instruction
system.cpu0.commit.op_class_0::InstPrefetch            0      0.00%    100.00% # Class of committed instruction
system.cpu0.commit.op_class_0::total         66004966                       # Class of committed instruction
system.cpu0.commit.bw_lim_events              4446718                       # number cycles where commit BW limit reached
system.cpu0.rob.rob_reads                   101000488                       # The number of ROB reads
system.cpu0.rob.rob_writes                  153741130                       # The number of ROB writes
system.cpu0.committedInsts                   37182445                       # Number of Instructions Simulated
system.cpu0.committedOps                     66004966                       # Number of Ops (including micro ops) Simulated
system.cpu0.cpi                              0.821212                       # CPI: Cycles Per Instruction
system.cpu0.cpi_total                        0.821212                       # CPI: Total CPI of All Threads
system.cpu0.ipc                              1.217712                       # IPC: Instructions Per Cycle
system.cpu0.ipc_total                        1.217712                       # IPC: Total IPC of All Threads
system.cpu0.int_regfile_reads                56203941                       # number of integer regfile reads
system.cpu0.int_regfile_writes               28565148                       # number of integer regfile writes
system.cpu0.fp_regfile_reads                 64636540                       # number of floating regfile reads
system.cpu0.fp_regfile_writes                33200454                       # number of floating regfile writes
system.cpu0.cc_regfile_reads                 20677539                       # number of cc regfile reads
system.cpu0.cc_regfile_writes                13423958                       # number of cc regfile writes
system.cpu0.misc_regfile_reads               24098977                       # number of misc regfile reads
system.cpu0.dcache.tags.pwrStateResidencyTicks::UNDEFINED  15267344125                       # Cumulative time (in ticks) in various power states
system.cpu0.dcache.tags.replacements            14316                       # number of replacements
system.cpu0.dcache.tags.tagsinuse                1024                       # Cycle average of tags in use
system.cpu0.dcache.tags.total_refs            1076120                       # Total number of references to valid blocks.
system.cpu0.dcache.tags.sampled_refs            14316                       # Sample count of references to valid blocks.
system.cpu0.dcache.tags.avg_refs            75.169042                       # Average number of references to valid blocks.
system.cpu0.dcache.tags.warmup_cycle                0                       # Cycle when the warmup percentage was hit.
system.cpu0.dcache.tags.occ_blocks::cpu0.data         1024                       # Average occupied blocks per requestor
system.cpu0.dcache.tags.occ_percent::cpu0.data            1                       # Average percentage of cache occupancy
system.cpu0.dcache.tags.occ_percent::total            1                       # Average percentage of cache occupancy
system.cpu0.dcache.tags.occ_task_id_blocks::1024         1024                       # Occupied blocks per task id
system.cpu0.dcache.tags.age_task_id_blocks_1024::0           10                       # Occupied blocks per task id
system.cpu0.dcache.tags.age_task_id_blocks_1024::1           86                       # Occupied blocks per task id
system.cpu0.dcache.tags.age_task_id_blocks_1024::2          703                       # Occupied blocks per task id
system.cpu0.dcache.tags.age_task_id_blocks_1024::3            5                       # Occupied blocks per task id
system.cpu0.dcache.tags.age_task_id_blocks_1024::4          220                       # Occupied blocks per task id
system.cpu0.dcache.tags.occ_task_id_percent::1024            1                       # Percentage of cache occupancy per task id
system.cpu0.dcache.tags.tag_accesses         42312820                       # Number of tag accesses
system.cpu0.dcache.tags.data_accesses        42312820                       # Number of data accesses
system.cpu0.dcache.pwrStateResidencyTicks::UNDEFINED  15267344125                       # Cumulative time (in ticks) in various power states
system.cpu0.dcache.ReadReq_hits::cpu0.data      8457966                       # number of ReadReq hits
system.cpu0.dcache.ReadReq_hits::total        8457966                       # number of ReadReq hits
system.cpu0.dcache.WriteReq_hits::cpu0.data      2102215                       # number of WriteReq hits
system.cpu0.dcache.WriteReq_hits::total       2102215                       # number of WriteReq hits
system.cpu0.dcache.demand_hits::cpu0.data     10560181                       # number of demand (read+write) hits
system.cpu0.dcache.demand_hits::total        10560181                       # number of demand (read+write) hits
system.cpu0.dcache.overall_hits::cpu0.data     10560181                       # number of overall hits
system.cpu0.dcache.overall_hits::total       10560181                       # number of overall hits
system.cpu0.dcache.ReadReq_misses::cpu0.data        14445                       # number of ReadReq misses
system.cpu0.dcache.ReadReq_misses::total        14445                       # number of ReadReq misses
system.cpu0.dcache.demand_misses::cpu0.data        14445                       # number of demand (read+write) misses
system.cpu0.dcache.demand_misses::total         14445                       # number of demand (read+write) misses
system.cpu0.dcache.overall_misses::cpu0.data        14445                       # number of overall misses
system.cpu0.dcache.overall_misses::total        14445                       # number of overall misses
system.cpu0.dcache.ReadReq_miss_latency::cpu0.data   1434615000                       # number of ReadReq miss cycles
system.cpu0.dcache.ReadReq_miss_latency::total   1434615000                       # number of ReadReq miss cycles
system.cpu0.dcache.demand_miss_latency::cpu0.data   1434615000                       # number of demand (read+write) miss cycles
system.cpu0.dcache.demand_miss_latency::total   1434615000                       # number of demand (read+write) miss cycles
system.cpu0.dcache.overall_miss_latency::cpu0.data   1434615000                       # number of overall miss cycles
system.cpu0.dcache.overall_miss_latency::total   1434615000                       # number of overall miss cycles
system.cpu0.dcache.ReadReq_accesses::cpu0.data      8472411                       # number of ReadReq accesses(hits+misses)
system.cpu0.dcache.ReadReq_accesses::total      8472411                       # number of ReadReq accesses(hits+misses)
system.cpu0.dcache.WriteReq_accesses::cpu0.data      2102215                       # number of WriteReq accesses(hits+misses)
system.cpu0.dcache.WriteReq_accesses::total      2102215                       # number of WriteReq accesses(hits+misses)
system.cpu0.dcache.demand_accesses::cpu0.data     10574626                       # number of demand (read+write) accesses
system.cpu0.dcache.demand_accesses::total     10574626                       # number of demand (read+write) accesses
system.cpu0.dcache.overall_accesses::cpu0.data     10574626                       # number of overall (read+write) accesses
system.cpu0.dcache.overall_accesses::total     10574626                       # number of overall (read+write) accesses
system.cpu0.dcache.ReadReq_miss_rate::cpu0.data     0.001705                       # miss rate for ReadReq accesses
system.cpu0.dcache.ReadReq_miss_rate::total     0.001705                       # miss rate for ReadReq accesses
system.cpu0.dcache.demand_miss_rate::cpu0.data     0.001366                       # miss rate for demand accesses
system.cpu0.dcache.demand_miss_rate::total     0.001366                       # miss rate for demand accesses
system.cpu0.dcache.overall_miss_rate::cpu0.data     0.001366                       # miss rate for overall accesses
system.cpu0.dcache.overall_miss_rate::total     0.001366                       # miss rate for overall accesses
system.cpu0.dcache.ReadReq_avg_miss_latency::cpu0.data 99315.680166                       # average ReadReq miss latency
system.cpu0.dcache.ReadReq_avg_miss_latency::total 99315.680166                       # average ReadReq miss latency
system.cpu0.dcache.demand_avg_miss_latency::cpu0.data 99315.680166                       # average overall miss latency
system.cpu0.dcache.demand_avg_miss_latency::total 99315.680166                       # average overall miss latency
system.cpu0.dcache.overall_avg_miss_latency::cpu0.data 99315.680166                       # average overall miss latency
system.cpu0.dcache.overall_avg_miss_latency::total 99315.680166                       # average overall miss latency
system.cpu0.dcache.blocked_cycles::no_mshrs            0                       # number of cycles access was blocked
system.cpu0.dcache.blocked_cycles::no_targets            0                       # number of cycles access was blocked
system.cpu0.dcache.blocked::no_mshrs                0                       # number of cycles access was blocked
system.cpu0.dcache.blocked::no_targets              0                       # number of cycles access was blocked
system.cpu0.dcache.avg_blocked_cycles::no_mshrs          nan                       # average number of cycles each access was blocked
system.cpu0.dcache.avg_blocked_cycles::no_targets          nan                       # average number of cycles each access was blocked
system.cpu0.dcache.writebacks::writebacks        13462                       # number of writebacks
system.cpu0.dcache.writebacks::total            13462                       # number of writebacks
system.cpu0.dcache.ReadReq_mshr_hits::cpu0.data          129                       # number of ReadReq MSHR hits
system.cpu0.dcache.ReadReq_mshr_hits::total          129                       # number of ReadReq MSHR hits
system.cpu0.dcache.demand_mshr_hits::cpu0.data          129                       # number of demand (read+write) MSHR hits
system.cpu0.dcache.demand_mshr_hits::total          129                       # number of demand (read+write) MSHR hits
system.cpu0.dcache.overall_mshr_hits::cpu0.data          129                       # number of overall MSHR hits
system.cpu0.dcache.overall_mshr_hits::total          129                       # number of overall MSHR hits
system.cpu0.dcache.ReadReq_mshr_misses::cpu0.data        14316                       # number of ReadReq MSHR misses
system.cpu0.dcache.ReadReq_mshr_misses::total        14316                       # number of ReadReq MSHR misses
[...]
system.l2.tags.sampled_refs                     14287                       # Sample count of references to valid blocks.
system.l2.tags.avg_refs                             1                       # Average number of references to valid blocks.
system.l2.tags.warmup_cycle                         0                       # Cycle when the warmup percentage was hit.
system.l2.tags.occ_blocks::cpu0.data            49152                       # Average occupied blocks per requestor
system.l2.tags.occ_percent::cpu0.data               1                       # Average percentage of cache occupancy
system.l2.tags.occ_percent::total                   1                       # Average percentage of cache occupancy
system.l2.tags.occ_task_id_blocks::1024         49152                       # Occupied blocks per task id
system.l2.tags.age_task_id_blocks_1024::0           10                       # Occupied blocks per task id
system.l2.tags.age_task_id_blocks_1024::1           86                       # Occupied blocks per task id
system.l2.tags.age_task_id_blocks_1024::2          844                       # Occupied blocks per task id
system.l2.tags.age_task_id_blocks_1024::3         8430                       # Occupied blocks per task id
system.l2.tags.age_task_id_blocks_1024::4        39782                       # Occupied blocks per task id
system.l2.tags.occ_task_id_percent::1024            1                       # Percentage of cache occupancy per task id
system.l2.tags.tag_accesses                    357871                       # Number of tag accesses
system.l2.tags.data_accesses                   357871                       # Number of data accesses
system.l2.pwrStateResidencyTicks::UNDEFINED  15267344125                       # Cumulative time (in ticks) in various power states
system.l2.WritebackDirty_hits::writebacks        13462                       # number of WritebackDirty hits
system.l2.WritebackDirty_hits::total            13462                       # number of WritebackDirty hits
system.l2.ReadSharedReq_hits::cpu0.data            29                       # number of ReadSharedReq hits
system.l2.ReadSharedReq_hits::total                29                       # number of ReadSharedReq hits
system.l2.demand_hits::cpu0.data                   29                       # number of demand (read+write) hits
system.l2.demand_hits::total                       29                       # number of demand (read+write) hits
system.l2.overall_hits::cpu0.data                  29                       # number of overall hits
system.l2.overall_hits::total                      29                       # number of overall hits
system.l2.ReadSharedReq_misses::cpu0.data        14287                       # number of ReadSharedReq misses
system.l2.ReadSharedReq_misses::total           14287                       # number of ReadSharedReq misses
system.l2.demand_misses::cpu0.data              14287                       # number of demand (read+write) misses
system.l2.demand_misses::total                  14287                       # number of demand (read+write) misses
system.l2.overall_misses::cpu0.data             14287                       # number of overall misses
system.l2.overall_misses::total                 14287                       # number of overall misses
system.l2.ReadSharedReq_miss_latency::cpu0.data   1388524500                       # number of ReadSharedReq miss cycles
system.l2.ReadSharedReq_miss_latency::total   1388524500                       # number of ReadSharedReq miss cycles
system.l2.demand_miss_latency::cpu0.data   1388524500                       # number of demand (read+write) miss cycles
system.l2.demand_miss_latency::total       1388524500                       # number of demand (read+write) miss cycles
system.l2.overall_miss_latency::cpu0.data   1388524500                       # number of overall miss cycles
system.l2.overall_miss_latency::total      1388524500                       # number of overall miss cycles
system.l2.WritebackDirty_accesses::writebacks        13462                       # number of WritebackDirty accesses(hits+misses)
system.l2.WritebackDirty_accesses::total        13462                       # number of WritebackDirty accesses(hits+misses)
system.l2.ReadSharedReq_accesses::cpu0.data        14316                       # number of ReadSharedReq accesses(hits+misses)
system.l2.ReadSharedReq_accesses::total         14316                       # number of ReadSharedReq accesses(hits+misses)
system.l2.demand_accesses::cpu0.data            14316                       # number of demand (read+write) accesses
system.l2.demand_accesses::total                14316                       # number of demand (read+write) accesses
system.l2.overall_accesses::cpu0.data           14316                       # number of overall (read+write) accesses
system.l2.overall_accesses::total               14316                       # number of overall (read+write) accesses
system.l2.ReadSharedReq_miss_rate::cpu0.data     0.997974                       # miss rate for ReadSharedReq accesses
system.l2.ReadSharedReq_miss_rate::total     0.997974                       # miss rate for ReadSharedReq accesses
system.l2.demand_miss_rate::cpu0.data        0.997974                       # miss rate for demand accesses
system.l2.demand_miss_rate::total            0.997974                       # miss rate for demand accesses
system.l2.overall_miss_rate::cpu0.data       0.997974                       # miss rate for overall accesses
system.l2.overall_miss_rate::total           0.997974                       # miss rate for overall accesses
system.l2.ReadSharedReq_avg_miss_latency::cpu0.data 97187.968083                       # average ReadSharedReq miss latency
system.l2.ReadSharedReq_avg_miss_latency::total 97187.968083                       # average ReadSharedReq miss latency
system.l2.demand_avg_miss_latency::cpu0.data 97187.968083                       # average overall miss latency
system.l2.demand_avg_miss_latency::total 97187.968083                       # average overall miss latency
system.l2.overall_avg_miss_latency::cpu0.data 97187.968083                       # average overall miss latency
system.l2.overall_avg_miss_latency::total 97187.968083                       # average overall miss latency
system.l2.blocked_cycles::no_mshrs                  0                       # number of cycles access was blocked
system.l2.blocked_cycles::no_targets                0                       # number of cycles access was blocked
system.l2.blocked::no_mshrs                         0                       # number of cycles access was blocked
system.l2.blocked::no_targets                       0                       # number of cycles access was blocked
system.l2.avg_blocked_cycles::no_mshrs            nan                       # average number of cycles each access was blocked
system.l2.avg_blocked_cycles::no_targets          nan                       # average number of cycles each access was blocked
system.l2.writebacks::writebacks                13319                       # number of writebacks
system.l2.writebacks::total                     13319                       # number of writebacks
system.l2.CleanEvict_mshr_misses::writebacks            1                       # number of CleanEvict MSHR misses
system.l2.CleanEvict_mshr_misses::total             1                       # number of CleanEvict MSHR misses
system.l2.ReadSharedReq_mshr_misses::cpu0.data        14287                       # number of ReadSharedReq MSHR misses
system.l2.ReadSharedReq_mshr_misses::total        14287                       # number of ReadSharedReq MSHR misses
system.l2.demand_mshr_misses::cpu0.data         14287                       # number of demand (read+write) MSHR misses
system.l2.demand_mshr_misses::total             14287                       # number of demand (read+write) MSHR misses
system.l2.overall_mshr_misses::cpu0.data        14287                       # number of overall MSHR misses
system.l2.overall_mshr_misses::total            14287                       # number of overall MSHR misses
system.l2.ReadSharedReq_mshr_miss_latency::cpu0.data   1245654500                       # number of ReadSharedReq MSHR miss cycles
system.l2.ReadSharedReq_mshr_miss_latency::total   1245654500                       # number of ReadSharedReq MSHR miss cycles
system.l2.demand_mshr_miss_latency::cpu0.data   1245654500                       # number of demand (read+write) MSHR miss cycles
system.l2.demand_mshr_miss_latency::total   1245654500                       # number of demand (read+write) MSHR miss cycles
system.l2.overall_mshr_miss_latency::cpu0.data   1245654500                       # number of overall MSHR miss cycles
system.l2.overall_mshr_miss_latency::total   1245654500                       # number of overall MSHR miss cycles
system.l2.CleanEvict_mshr_miss_rate::writebacks          inf                       # mshr miss rate for CleanEvict accesses
system.l2.CleanEvict_mshr_miss_rate::total          inf                       # mshr miss rate for CleanEvict accesses
system.l2.ReadSharedReq_mshr_miss_rate::cpu0.data     0.997974                       # mshr miss rate for ReadSharedReq accesses
system.l2.ReadSharedReq_mshr_miss_rate::total     0.997974                       # mshr miss rate for ReadSharedReq accesses
system.l2.demand_mshr_miss_rate::cpu0.data     0.997974                       # mshr miss rate for demand accesses
system.l2.demand_mshr_miss_rate::total       0.997974                       # mshr miss rate for demand accesses
system.l2.overall_mshr_miss_rate::cpu0.data     0.997974                       # mshr miss rate for overall accesses
system.l2.overall_mshr_miss_rate::total      0.997974                       # mshr miss rate for overall accesses
system.l2.ReadSharedReq_avg_mshr_miss_latency::cpu0.data 87187.968083                       # average ReadSharedReq mshr miss latency
system.l2.ReadSharedReq_avg_mshr_miss_latency::total 87187.968083                       # average ReadSharedReq mshr miss latency
system.l2.demand_avg_mshr_miss_latency::cpu0.data 87187.968083                       # average overall mshr miss latency
system.l2.demand_avg_mshr_miss_latency::total 87187.968083                       # average overall mshr miss latency
system.l2.overall_avg_mshr_miss_latency::cpu0.data 87187.968083                       # average overall mshr miss latency
system.l2.overall_avg_mshr_miss_latency::total 87187.968083                       # average overall mshr miss latency
system.membus.snoop_filter.tot_requests         28575                       # Total number of requests made to the snoop filter.
system.membus.snoop_filter.hit_single_requests        14288                       # Number of requests hitting in the snoop filter with a single holder of the requested data.
system.membus.snoop_filter.hit_multi_requests            0                       # Number of requests hitting in the snoop filter with multiple (>1) holders of the requested data.
system.membus.snoop_filter.tot_snoops               0                       # Total number of snoops made to the snoop filter.
system.membus.snoop_filter.hit_single_snoops            0                       # Number of snoops hitting in the snoop filter with a single holder of the requested data.
system.membus.snoop_filter.hit_multi_snoops            0                       # Number of snoops hitting in the snoop filter with multiple (>1) holders of the requested data.
system.membus.pwrStateResidencyTicks::UNDEFINED  15267344125                       # Cumulative time (in ticks) in various power states
system.membus.trans_dist::ReadResp              14287                       # Transaction distribution
system.membus.trans_dist::WritebackDirty        13319                       # Transaction distribution
system.membus.trans_dist::CleanEvict              969                       # Transaction distribution
system.membus.trans_dist::ReadSharedReq         14287                       # Transaction distribution
system.membus.pkt_count_system.l2.mem_side::system.mem_ctrls.port        42862                       # Packet count per connected master and slave (bytes)
system.membus.pkt_count_system.l2.mem_side::total        42862                       # Packet count per connected master and slave (bytes)
system.membus.pkt_count::total                  42862                       # Packet count per connected master and slave (bytes)
system.membus.pkt_size_system.l2.mem_side::system.mem_ctrls.port      1766784                       # Cumulative packet size per connected master and slave (bytes)
system.membus.pkt_size_system.l2.mem_side::total      1766784                       # Cumulative packet size per connected master and slave (bytes)
system.membus.pkt_size::total                 1766784                       # Cumulative packet size per connected master and slave (bytes)
system.membus.snoops                                0                       # Total snoops (count)
system.membus.snoopTraffic                          0                       # Total snoop traffic (bytes)
system.membus.snoop_fanout::samples             14287                       # Request fanout histogram
system.membus.snoop_fanout::mean                    0                       # Request fanout histogram
system.membus.snoop_fanout::stdev                   0                       # Request fanout histogram
system.membus.snoop_fanout::underflows              0      0.00%      0.00% # Request fanout histogram
system.membus.snoop_fanout::0                   14287    100.00%    100.00% # Request fanout histogram
system.membus.snoop_fanout::1                       0      0.00%    100.00% # Request fanout histogram
system.membus.snoop_fanout::overflows               0      0.00%    100.00% # Request fanout histogram
system.membus.snoop_fanout::min_value               0                       # Request fanout histogram
system.membus.snoop_fanout::max_value               0                       # Request fanout histogram
system.membus.snoop_fanout::total               14287                       # Request fanout histogram
system.membus.reqLayer8.occupancy            85453000                       # Layer occupancy (ticks)
system.membus.reqLayer8.utilization               0.6                       # Layer utilization (%)
system.membus.respLayer1.occupancy           76092750                       # Layer occupancy (ticks)
system.membus.respLayer1.utilization              0.5                       # Layer utilization (%)
system.tol2bus.snoop_filter.tot_requests        28632                       # Total number of requests made to the snoop filter.
system.tol2bus.snoop_filter.hit_single_requests        14316                       # Number of requests hitting in the snoop filter with a single holder of the requested data.
system.tol2bus.snoop_filter.hit_multi_requests            0                       # Number of requests hitting in the snoop filter with multiple (>1) holders of the requested data.
system.tol2bus.snoop_filter.tot_snoops              0                       # Total number of snoops made to the snoop filter.
system.tol2bus.snoop_filter.hit_single_snoops            0                       # Number of snoops hitting in the snoop filter with a single holder of the requested data.
system.tol2bus.snoop_filter.hit_multi_snoops            0                       # Number of snoops hitting in the snoop filter with multiple (>1) holders of the requested data.
system.tol2bus.pwrStateResidencyTicks::UNDEFINED  15267344125                       # Cumulative time (in ticks) in various power states
system.tol2bus.trans_dist::ReadResp             14316                       # Transaction distribution
system.tol2bus.trans_dist::WritebackDirty        26781                       # Transaction distribution
system.tol2bus.trans_dist::CleanEvict            1822                       # Transaction distribution
system.tol2bus.trans_dist::ReadSharedReq        14316                       # Transaction distribution
system.tol2bus.pkt_count_system.cpu0.dcache.mem_side::system.l2.cpu_side        42948                       # Packet count per connected master and slave (bytes)
system.tol2bus.pkt_count::total                 42948                       # Packet count per connected master and slave (bytes)
system.tol2bus.pkt_size_system.cpu0.dcache.mem_side::system.l2.cpu_side      1777792                       # Cumulative packet size per connected master and slave (bytes)
system.tol2bus.pkt_size::total                1777792                       # Cumulative packet size per connected master and slave (bytes)
system.tol2bus.snoops                           14287                       # Total snoops (count)
system.tol2bus.snoopTraffic                    852416                       # Total snoop traffic (bytes)
system.tol2bus.snoop_fanout::samples            28603                       # Request fanout histogram
system.tol2bus.snoop_fanout::mean                   0                       # Request fanout histogram
system.tol2bus.snoop_fanout::stdev                  0                       # Request fanout histogram
system.tol2bus.snoop_fanout::underflows             0      0.00%      0.00% # Request fanout histogram
system.tol2bus.snoop_fanout::0                  28603    100.00%    100.00% # Request fanout histogram
system.tol2bus.snoop_fanout::1                      0      0.00%    100.00% # Request fanout histogram
system.tol2bus.snoop_fanout::2                      0      0.00%    100.00% # Request fanout histogram
system.tol2bus.snoop_fanout::3                      0      0.00%    100.00% # Request fanout histogram
system.tol2bus.snoop_fanout::4                      0      0.00%    100.00% # Request fanout histogram
system.tol2bus.snoop_fanout::5                      0      0.00%    100.00% # Request fanout histogram
system.tol2bus.snoop_fanout::6                      0      0.00%    100.00% # Request fanout histogram
system.tol2bus.snoop_fanout::7                      0      0.00%    100.00% # Request fanout histogram
system.tol2bus.snoop_fanout::8                      0      0.00%    100.00% # Request fanout histogram
system.tol2bus.snoop_fanout::9                      0      0.00%    100.00% # Request fanout histogram
system.tol2bus.snoop_fanout::10                     0      0.00%    100.00% # Request fanout histogram
system.tol2bus.snoop_fanout::11                     0      0.00%    100.00% # Request fanout histogram
system.tol2bus.snoop_fanout::12                     0      0.00%    100.00% # Request fanout histogram
system.tol2bus.snoop_fanout::13                     0      0.00%    100.00% # Request fanout histogram
system.tol2bus.snoop_fanout::14                     0      0.00%    100.00% # Request fanout histogram
system.tol2bus.snoop_fanout::15                     0      0.00%    100.00% # Request fanout histogram
system.tol2bus.snoop_fanout::16                     0      0.00%    100.00% # Request fanout histogram
system.tol2bus.snoop_fanout::overflows              0      0.00%    100.00% # Request fanout histogram
system.tol2bus.snoop_fanout::min_value              0                       # Request fanout histogram
system.tol2bus.snoop_fanout::max_value              0                       # Request fanout histogram
system.tol2bus.snoop_fanout::total              28603                       # Request fanout histogram
system.tol2bus.reqLayer0.occupancy           27778000                       # Layer occupancy (ticks)
system.tol2bus.reqLayer0.utilization              0.2                       # Layer utilization (%)
system.tol2bus.respLayer1.occupancy          21474000                       # Layer occupancy (ticks)
system.tol2bus.respLayer1.utilization             0.1                       # Layer utilization (%)

---------- End Simulation Statistics   ----------
