
---------- Begin Simulation Statistics ----------
sim_seconds                                  0.015267                       # Number of seconds simulated
sim_ticks                                 15267344125                       # Number of ticks simulated
final_tick                               7832147536125                       # Number of ticks from beginning of simulation (restored from checkpoints and never reset)
sim_freq                                 1000000000000                       # Frequency of simulated ticks
host_inst_rate                               77295061                       # Simulator instruction rate (inst/s)
host_op_rate                                144154181                       # Simulator op (including micro ops) rate (op/s)
host_tick_rate                              193986955                       # Simulator tick rate (ticks/s)
host_mem_usage                                2332684                       # Number of bytes of host memory used
host_seconds                                    78.70                       # Real time elapsed on the host
sim_insts                                  6083346002                       # Number of instructions simulated
sim_ops                                   11345355702                       # Number of ops (including micro ops) simulated
system.voltage_domain.voltage                       1                       # Voltage in Volts
system.clk_domain.clock                          1000                       # Clock period in ticks
system.mem_ctrls.pwrStateResidencyTicks::UNDEFINED  15267344125                       # Cumulative time (in ticks) in various power states
system.mem_ctrls.bytes_read::cpu0.data       12247680                       # Number of bytes read from this memory
system.mem_ctrls.bytes_read::total           12247680                       # Number of bytes read from this memory
system.mem_ctrls.bytes_written::writebacks        17536                       # Number of bytes written to this memory
system.mem_ctrls.bytes_written::total           17536                       # Number of bytes written to this memory
system.mem_ctrls.num_reads::cpu0.data          191370                       # Number of read requests responded to by this memory
system.mem_ctrls.num_reads::total              191370                       # Number of read requests responded to by this memory
system.mem_ctrls.num_writes::writebacks           274                       # Number of write requests responded to by this memory
system.mem_ctrls.num_writes::total                274                       # Number of write requests responded to by this memory
system.mem_ctrls.bw_read::cpu0.data         802214183                       # Total read bandwidth from this memory (bytes/s)
system.mem_ctrls.bw_read::total             802214183                       # Total read bandwidth from this memory (bytes/s)
system.mem_ctrls.bw_write::writebacks         1148595                       # Write bandwidth from this memory (bytes/s)
system.mem_ctrls.bw_write::total              1148595                       # Write bandwidth from this memory (bytes/s)
system.mem_ctrls.bw_total::writebacks         1148595                       # Total bandwidth to/from this memory (bytes/s)
system.mem_ctrls.bw_total::cpu0.data        802214183                       # Total bandwidth to/from this memory (bytes/s)
system.mem_ctrls.bw_total::total            803362779                       # Total bandwidth to/from this memory (bytes/s)
system.mem_ctrls.readReqs                      191370                       # Number of read requests accepted
system.mem_ctrls.writeReqs                        274                       # Number of write requests accepted
system.mem_ctrls.readBursts                    191370                       # Number of DRAM read bursts, including those serviced by the write queue
system.mem_ctrls.writeBursts                      274                       # Number of DRAM write bursts, including those merged in the write queue
system.mem_ctrls.bytesReadDRAM               12245440                       # Total number of bytes read from DRAM
system.mem_ctrls.bytesReadWrQ                    2240                       # Total number of bytes read from write queue
system.mem_ctrls.bytesWritten                   18432                       # Total number of bytes written to DRAM
system.mem_ctrls.bytesReadSys                12247680                       # Total read bytes from the system interface side
system.mem_ctrls.bytesWrittenSys                17536                       # Total written bytes from the system interface side
system.mem_ctrls.servicedByWrQ                     35                       # Number of DRAM read bursts serviced by the write queue
system.mem_ctrls.mergedWrBursts                     0                       # Number of DRAM write bursts merged with an existing one
system.mem_ctrls.neitherReadNorWriteReqs            0                       # Number of requests that are neither read nor write
system.mem_ctrls.perBankRdBursts::0             11833                       # Per bank write bursts
system.mem_ctrls.perBankRdBursts::1             11715                       # Per bank write bursts
system.mem_ctrls.perBankRdBursts::2             11926                       # Per bank write bursts
system.mem_ctrls.perBankRdBursts::3             11769                       # Per bank write bursts
system.mem_ctrls.perBankRdBursts::4             11854                       # Per bank write bursts
system.mem_ctrls.perBankRdBursts::5             11840                       # Per bank write bursts
system.mem_ctrls.perBankRdBursts::6             11799                       # Per bank write bursts
system.mem_ctrls.perBankRdBursts::7             11987                       # Per bank write bursts
system.mem_ctrls.perBankRdBursts::8             11827                       # Per bank write bursts
system.mem_ctrls.perBankRdBursts::9             12056                       # Per bank write bursts
system.mem_ctrls.perBankRdBursts::10            11864                       # Per bank write bursts
system.mem_ctrls.perBankRdBursts::11            11938                       # Per bank write bursts
system.mem_ctrls.perBankRdBursts::12            12369                       # Per bank write bursts
system.mem_ctrls.perBankRdBursts::13            12280                       # Per bank write bursts
system.mem_ctrls.perBankRdBursts::14            12129                       # Per bank write bursts
system.mem_ctrls.perBankRdBursts::15            12149                       # Per bank write bursts
system.mem_ctrls.perBankWrBursts::0                 0                       # Per bank write bursts
system.mem_ctrls.perBankWrBursts::1                 0                       # Per bank write bursts
system.mem_ctrls.perBankWrBursts::2                 0                       # Per bank write bursts
system.mem_ctrls.perBankWrBursts::3                 0                       # Per bank write bursts
system.mem_ctrls.perBankWrBursts::4                18                       # Per bank write bursts
system.mem_ctrls.perBankWrBursts::5                 0                       # Per bank write bursts
system.mem_ctrls.perBankWrBursts::6                 0                       # Per bank write bursts
system.mem_ctrls.perBankWrBursts::7                 9                       # Per bank write bursts
system.mem_ctrls.perBankWrBursts::8                 0                       # Per bank write bursts
system.mem_ctrls.perBankWrBursts::9                 0                       # Per bank write bursts
system.mem_ctrls.perBankWrBursts::10                0                       # Per bank write bursts
system.mem_ctrls.perBankWrBursts::11                0                       # Per bank write bursts
system.mem_ctrls.perBankWrBursts::12               91                       # Per bank write bursts
system.mem_ctrls.perBankWrBursts::13              109                       # Per bank write bursts
system.mem_ctrls.perBankWrBursts::14               61                       # Per bank write bursts
system.mem_ctrls.perBankWrBursts::15                0                       # Per bank write bursts
system.mem_ctrls.numRdRetry                         0                       # Number of times read queue was full causing retry
system.mem_ctrls.numWrRetry                         0                       # Number of times write queue was full causing retry
system.mem_ctrls.totGap                   15267375500                       # Total gap between requests
system.mem_ctrls.readPktSize::0                     0                       # Read request sizes (log2)
system.mem_ctrls.readPktSize::1                     0                       # Read request sizes (log2)
system.mem_ctrls.readPktSize::2                     0                       # Read request sizes (log2)
system.mem_ctrls.readPktSize::3                     0                       # Read request sizes (log2)
system.mem_ctrls.readPktSize::4                     0                       # Read request sizes (log2)
system.mem_ctrls.readPktSize::5                     0                       # Read request sizes (log2)
system.mem_ctrls.readPktSize::6                191370                       # Read request sizes (log2)
system.mem_ctrls.writePktSize::0                    0                       # Write request sizes (log2)
system.mem_ctrls.writePktSize::1                    0                       # Write request sizes (log2)
system.mem_ctrls.writePktSize::2                    0                       # Write request sizes (log2)
system.mem_ctrls.writePktSize::3                    0                       # Write request sizes (log2)
system.mem_ctrls.writePktSize::4                    0                       # Write request sizes (log2)
system.mem_ctrls.writePktSize::5                    0                       # Write request sizes (log2)
system.mem_ctrls.writePktSize::6                  274                       # Write request sizes (log2)
system.mem_ctrls.rdQLenPdf::0                  145281                       # What read queue length does an incoming req see
system.mem_ctrls.rdQLenPdf::1                   43096                       # What read queue length does an incoming req see
system.mem_ctrls.rdQLenPdf::2                    2904                       # What read queue length does an incoming req see
system.mem_ctrls.rdQLenPdf::3                      54                       # What read queue length does an incoming req see
system.mem_ctrls.rdQLenPdf::4                       0                       # What read queue length does an incoming req see
system.mem_ctrls.rdQLenPdf::5                       0                       # What read queue length does an incoming req see
system.mem_ctrls.rdQLenPdf::6                       0                       # What read queue length does an incoming req see
system.mem_ctrls.rdQLenPdf::7                       0                       # What read queue length does an incoming req see
system.mem_ctrls.rdQLenPdf::8                       0                       # What read queue length does an incoming req see
system.mem_ctrls.rdQLenPdf::9                       0                       # What read queue length does an incoming req see
system.mem_ctrls.rdQLenPdf::10                      0                       # What read queue length does an incoming req see
system.mem_ctrls.rdQLenPdf::11                      0                       # What read queue length does an incoming req see
system.mem_ctrls.rdQLenPdf::12                      0                       # What read queue length does an incoming req see
system.mem_ctrls.rdQLenPdf::13                      0                       # What read queue length does an incoming req see
system.mem_ctrls.rdQLenPdf::14                      0                       # What read queue length does an incoming req see
system.mem_ctrls.rdQLenPdf::15                      0                       # What read queue length does an incoming req see
system.mem_ctrls.rdQLenPdf::16                      0                       # What read queue length does an incoming req see
system.mem_ctrls.rdQLenPdf::17                      0                       # What read queue length does an incoming req see
system.mem_ctrls.rdQLenPdf::18                      0                       # What read queue length does an incoming req see
system.mem_ctrls.rdQLenPdf::19                      0                       # What read queue length does an incoming req see
system.mem_ctrls.rdQLenPdf::20                      0                       # What read queue length does an incoming req see
system.mem_ctrls.rdQLenPdf::21                      0                       # What read queue length does an incoming req see
system.mem_ctrls.rdQLenPdf::22                      0                       # What read queue length does an incoming req see
system.mem_ctrls.rdQLenPdf::23                      0                       # What read queue length does an incoming req see
system.mem_ctrls.rdQLenPdf::24                      0                       # What read queue length does an incoming req see
system.mem_ctrls.rdQLenPdf::25                      0                       # What read queue length does an incoming req see
system.mem_ctrls.rdQLenPdf::26                      0                       # What read queue length does an incoming req see
system.mem_ctrls.rdQLenPdf::27                      0                       # What read queue length does an incoming req see
system.mem_ctrls.rdQLenPdf::28                      0                       # What read queue length does an incoming req see
system.mem_ctrls.rdQLenPdf::29                      0                       # What read queue length does an incoming req see
system.mem_ctrls.rdQLenPdf::30                      0                       # What read queue length does an incoming req see
system.mem_ctrls.rdQLenPdf::31                      0                       # What read queue length does an incoming req see
system.mem_ctrls.wrQLenPdf::0                       0                       # What write queue length does an incoming req see
system.mem_ctrls.wrQLenPdf::1                       0                       # What write queue length does an incoming req see
system.mem_ctrls.wrQLenPdf::2                       0                       # What write queue length does an incoming req see
system.mem_ctrls.wrQLenPdf::3                       0                       # What write queue length does an incoming req see
system.mem_ctrls.wrQLenPdf::4                       0                       # What write queue length does an incoming req see
system.mem_ctrls.wrQLenPdf::5                       0                       # What write queue length does an incoming req see
system.mem_ctrls.wrQLenPdf::6                       0                       # What write queue length does an incoming req see
system.mem_ctrls.wrQLenPdf::7                       0                       # What write queue length does an incoming req see
system.mem_ctrls.wrQLenPdf::8                       0                       # What write queue length does an incoming req see
system.mem_ctrls.wrQLenPdf::9                       0                       # What write queue length does an incoming req see
system.mem_ctrls.wrQLenPdf::10                      0                       # What write queue length does an incoming req see
system.mem_ctrls.wrQLenPdf::11                      0                       # What write queue length does an incoming req see
system.mem_ctrls.wrQLenPdf::12                      0                       # What write queue length does an incoming req see
system.mem_ctrls.wrQLenPdf::13                      0                       # What write queue length does an incoming req see
system.mem_ctrls.wrQLenPdf::14                      0                       # What write queue length does an incoming req see
system.mem_ctrls.wrQLenPdf::15                      0                       # What write queue length does an incoming req see
system.mem_ctrls.wrQLenPdf::16                      0                       # What write queue length does an incoming req see
system.mem_ctrls.wrQLenPdf::17                     18                       # What write queue length does an incoming req see
system.mem_ctrls.wrQLenPdf::18                     17                       # What write queue length does an incoming req see
system.mem_ctrls.wrQLenPdf::19                     17                       # What write queue length does an incoming req see
system.mem_ctrls.wrQLenPdf::20                     17                       # What write queue length does an incoming req see
system.mem_ctrls.wrQLenPdf::21                     17                       # What write queue length does an incoming req see
system.mem_ctrls.wrQLenPdf::22                     17                       # What write queue length does an incoming req see
system.mem_ctrls.wrQLenPdf::23                     17                       # What write queue length does an incoming req see
system.mem_ctrls.wrQLenPdf::24                     17                       # What write queue length does an incoming req see
system.mem_ctrls.wrQLenPdf::25                     17                       # What write queue length does an incoming req see
system.mem_ctrls.wrQLenPdf::26                     17                       # What write queue length does an incoming req see
system.mem_ctrls.wrQLenPdf::27                     17                       # What write queue length does an incoming req see
system.mem_ctrls.wrQLenPdf::28                     17                       # What write queue length does an incoming req see
system.mem_ctrls.wrQLenPdf::29                     17                       # What write queue length does an incoming req see
system.mem_ctrls.wrQLenPdf::30                     17                       # What write queue length does an incoming req see
system.mem_ctrls.wrQLenPdf::31                     17                       # What write queue length does an incoming req see
system.mem_ctrls.wrQLenPdf::32                     18                       # What write queue length does an incoming req see
system.mem_ctrls.wrQLenPdf::33                      0                       # What write queue length does an incoming req see
system.mem_ctrls.wrQLenPdf::34                      0                       # What write queue length does an incoming req see
system.mem_ctrls.wrQLenPdf::35                      0                       # What write queue length does an incoming req see
system.mem_ctrls.wrQLenPdf::36                      0                       # What write queue length does an incoming req see
system.mem_ctrls.wrQLenPdf::37                      0                       # What write queue length does an incoming req see
system.mem_ctrls.wrQLenPdf::38                      0                       # What write queue length does an incoming req see
system.mem_ctrls.wrQLenPdf::39                      0                       # What write queue length does an incoming req see
system.mem_ctrls.wrQLenPdf::40                      0                       # What write queue length does an incoming req see
system.mem_ctrls.wrQLenPdf::41                      0                       # What write queue length does an incoming req see
system.mem_ctrls.wrQLenPdf::42                      0                       # What write queue length does an incoming req see
system.mem_ctrls.wrQLenPdf::43                      0                       # What write queue length does an incoming req see
system.mem_ctrls.wrQLenPdf::44                      0                       # What write queue length does an incoming req see
system.mem_ctrls.wrQLenPdf::45                      0                       # What write queue length does an incoming req see
system.mem_ctrls.wrQLenPdf::46                      0                       # What write queue length does an incoming req see
system.mem_ctrls.wrQLenPdf::47                      0                       # What write queue length does an incoming req see
system.mem_ctrls.wrQLenPdf::48                      0                       # What write queue length does an incoming req see
system.mem_ctrls.wrQLenPdf::49                      0                       # What write queue length does an incoming req see
system.mem_ctrls.wrQLenPdf::50                      0                       # What write queue length does an incoming req see
system.mem_ctrls.wrQLenPdf::51                      0                       # What write queue length does an incoming req see
system.mem_ctrls.wrQLenPdf::52                      0                       # What write queue length does an incoming req see
system.mem_ctrls.wrQLenPdf::53                      0                       # What write queue length does an incoming req see
system.mem_ctrls.wrQLenPdf::54                      0                       # What write queue length does an incoming req see
system.mem_ctrls.wrQLenPdf::55                      0                       # What write queue length does an incoming req see
system.mem_ctrls.wrQLenPdf::56                      0                       # What write queue length does an incoming req see
system.mem_ctrls.wrQLenPdf::57                      0                       # What write queue length does an incoming req see
system.mem_ctrls.wrQLenPdf::58                      0                       # What write queue length does an incoming req see
system.mem_ctrls.wrQLenPdf::59                      0                       # What write queue length does an incoming req see
system.mem_ctrls.wrQLenPdf::60                      0                       # What write queue length does an incoming req see
system.mem_ctrls.wrQLenPdf::61                      0                       # What write queue length does an incoming req see
system.mem_ctrls.wrQLenPdf::62                      0                       # What write queue length does an incoming req see
system.mem_ctrls.wrQLenPdf::63                      0                       # What write queue length does an incoming req see
system.mem_ctrls.bytesPerActivate::samples        97513                       # Bytes accessed per row activation
system.mem_ctrls.bytesPerActivate::mean    125.765877                       # Bytes accessed per row activation
system.mem_ctrls.bytesPerActivate::gmean   108.329582                       # Bytes accessed per row activation
system.mem_ctrls.bytesPerActivate::stdev    74.874669                       # Bytes accessed per row activation
system.mem_ctrls.bytesPerActivate::0-127        43535     44.65%     44.65% # Bytes accessed per row activation
system.mem_ctrls.bytesPerActivate::128-255        43666     44.78%     89.42% # Bytes accessed per row activation
system.mem_ctrls.bytesPerActivate::256-383         9045      9.28%     98.70% # Bytes accessed per row activation
system.mem_ctrls.bytesPerActivate::384-511         1125      1.15%     99.85% # Bytes accessed per row activation
system.mem_ctrls.bytesPerActivate::512-639          118      0.12%     99.98% # Bytes accessed per row activation
system.mem_ctrls.bytesPerActivate::640-767           12      0.01%     99.99% # Bytes accessed per row activation
system.mem_ctrls.bytesPerActivate::768-895            7      0.01%     99.99% # Bytes accessed per row activation
system.mem_ctrls.bytesPerActivate::896-1023            2      0.00%    100.00% # Bytes accessed per row activation
system.mem_ctrls.bytesPerActivate::1024-1151            3      0.00%    100.00% # Bytes accessed per row activation
system.mem_ctrls.bytesPerActivate::total        97513                       # Bytes accessed per row activation
system.mem_ctrls.rdPerTurnAround::samples           18                       # Reads before turning the bus around for writes
system.mem_ctrls.rdPerTurnAround::mean   11327.111111                       # Reads before turning the bus around for writes
system.mem_ctrls.rdPerTurnAround::gmean  11045.383618                       # Reads before turning the bus around for writes
system.mem_ctrls.rdPerTurnAround::stdev   2582.840408                       # Reads before turning the bus around for writes
system.mem_ctrls.rdPerTurnAround::6656-7167            1      5.56%      5.56% # Reads before turning the bus around for writes
system.mem_ctrls.rdPerTurnAround::8192-8703            2     11.11%     16.67% # Reads before turning the bus around for writes
system.mem_ctrls.rdPerTurnAround::8704-9215            1      5.56%     22.22% # Reads before turning the bus around for writes
system.mem_ctrls.rdPerTurnAround::9216-9727            2     11.11%     33.33% # Reads before turning the bus around for writes
system.mem_ctrls.rdPerTurnAround::10240-10751            3     16.67%     50.00% # Reads before turning the bus around for writes
system.mem_ctrls.rdPerTurnAround::10752-11263            2     11.11%     61.11% # Reads before turning the bus around for writes
system.mem_ctrls.rdPerTurnAround::11776-12287            1      5.56%     66.67% # Reads before turning the bus around for writes
system.mem_ctrls.rdPerTurnAround::13312-13823            2     11.11%     77.78% # Reads before turning the bus around for writes
system.mem_ctrls.rdPerTurnAround::13824-14335            1      5.56%     83.33% # Reads before turning the bus around for writes
system.mem_ctrls.rdPerTurnAround::14336-14847            1      5.56%     88.89% # Reads before turning the bus around for writes
system.mem_ctrls.rdPerTurnAround::14848-15359            1      5.56%     94.44% # Reads before turning the bus around for writes
system.mem_ctrls.rdPerTurnAround::15360-15871            1      5.56%    100.00% # Reads before turning the bus around for writes
system.mem_ctrls.rdPerTurnAround::total            18                       # Reads before turning the bus around for writes
system.mem_ctrls.wrPerTurnAround::samples           18                       # Writes before turning the bus around for reads
system.mem_ctrls.wrPerTurnAround::mean             16                       # Writes before turning the bus around for reads
system.mem_ctrls.wrPerTurnAround::gmean     16.000000                       # Writes before turning the bus around for reads
system.mem_ctrls.wrPerTurnAround::16               18    100.00%    100.00% # Writes before turning the bus around for reads
system.mem_ctrls.wrPerTurnAround::total            18                       # Writes before turning the bus around for reads
system.mem_ctrls.totQLat                   4693334250                       # Total ticks spent queuing
system.mem_ctrls.totMemAccLat              8280865500                       # Total ticks spent from burst creation until serviced by the DRAM
system.mem_ctrls.totBusLat                  956675000                       # Total ticks spent in databus transfers
system.mem_ctrls.avgQLat                     24529.41                       # Average queueing delay per DRAM burst
system.mem_ctrls.avgBusLat                    5000.00                       # Average bus latency per DRAM burst
system.mem_ctrls.avgMemAccLat                43279.41                       # Average memory access latency per DRAM burst
system.mem_ctrls.avgRdBW                       802.07                       # Average DRAM read bandwidth in MiByte/s
system.mem_ctrls.avgWrBW                         1.21                       # Average achieved write bandwidth in MiByte/s
system.mem_ctrls.avgRdBWSys                    802.21                       # Average system read bandwidth in MiByte/s
system.mem_ctrls.avgWrBWSys                      1.15                       # Average system write bandwidth in MiByte/s
system.mem_ctrls.peakBW                      12800.00                       # Theoretical peak bandwidth in MiByte/s
system.mem_ctrls.busUtil                         6.28                       # Data bus utilization in percentage
system.mem_ctrls.busUtilRead                     6.27                       # Data bus utilization in percentage for reads
system.mem_ctrls.busUtilWrite                    0.01                       # Data bus utilization in percentage for writes
system.mem_ctrls.avgRdQLen                       1.31                       # Average read queue length when enqueuing
system.mem_ctrls.avgWrQLen                      25.04                       # Average write queue length when enqueuing
system.mem_ctrls.readRowHits                    93867                       # Number of row buffer hits during reads
system.mem_ctrls.writeRowHits                     243                       # Number of row buffer hits during writes
system.mem_ctrls.readRowHitRate                 49.06                       # Row buffer hit rate for reads
system.mem_ctrls.writeRowHitRate                88.69                       # Row buffer hit rate for writes
system.mem_ctrls.avgGap                      79665.29                       # Average gap between requests
system.mem_ctrls.pageHitRate                    49.12                       # Row buffer hit rate, read and write combined
system.mem_ctrls_0.actEnergy                344233680                       # Energy for activate commands per rank (pJ)
system.mem_ctrls_0.preEnergy                182964540                       # Energy for precharge commands per rank (pJ)
system.mem_ctrls_0.readEnergy               676322220                       # Energy for read commands per rank (pJ)
system.mem_ctrls_0.writeEnergy                 140940                       # Energy for write commands per rank (pJ)
system.mem_ctrls_0.refreshEnergy         1205309040.000000                       # Energy for refresh commands per rank (pJ)
system.mem_ctrls_0.actBackEnergy           1600615290                       # Energy for active background per rank (pJ)
system.mem_ctrls_0.preBackEnergy             24689760                       # Energy for precharge background per rank (pJ)
system.mem_ctrls_0.actPowerDownEnergy      5185935810                       # Energy for active power-down per rank (pJ)
system.mem_ctrls_0.prePowerDownEnergy       121332960                       # Energy for precharge power-down per rank (pJ)
system.mem_ctrls_0.selfRefreshEnergy          1581540                       # Energy for self refresh per rank (pJ)
system.mem_ctrls_0.totalEnergy             9343125780                       # Total energy per rank (pJ)
system.mem_ctrls_0.averagePower            611.967982                       # Core power per rank (mW)
system.mem_ctrls_0.totalIdleTime          11693506000                       # Total Idle time Per DRAM Rank
system.mem_ctrls_0.memoryStateTime::IDLE     10062000                       # Time in different power states
system.mem_ctrls_0.memoryStateTime::REF     509866000                       # Time in different power states
system.mem_ctrls_0.memoryStateTime::SREF      4289250                       # Time in different power states
system.mem_ctrls_0.memoryStateTime::PRE_PDN    315900500                       # Time in different power states
system.mem_ctrls_0.memoryStateTime::ACT    3053908750                       # Time in different power states
system.mem_ctrls_0.memoryStateTime::ACT_PDN  11373317625                       # Time in different power states
system.mem_ctrls_1.actEnergy                352009140                       # Energy for activate commands per rank (pJ)
system.mem_ctrls_1.preEnergy                187097295                       # Energy for precharge commands per rank (pJ)
system.mem_ctrls_1.readEnergy               689809680                       # Energy for read commands per rank (pJ)
system.mem_ctrls_1.writeEnergy                1362420                       # Energy for write commands per rank (pJ)
system.mem_ctrls_1.refreshEnergy         1205309040.000000                       # Energy for refresh commands per rank (pJ)
system.mem_ctrls_1.actBackEnergy           1629819240                       # Energy for active background per rank (pJ)
system.mem_ctrls_1.preBackEnergy             24198720                       # Energy for precharge background per rank (pJ)
system.mem_ctrls_1.actPowerDownEnergy      5182408080                       # Energy for active power-down per rank (pJ)
system.mem_ctrls_1.prePowerDownEnergy        99724320                       # Energy for precharge power-down per rank (pJ)
system.mem_ctrls_1.selfRefreshEnergy          1880040                       # Energy for self refresh per rank (pJ)
system.mem_ctrls_1.totalEnergy             9373617975                       # Total energy per rank (pJ)
system.mem_ctrls_1.averagePower            613.965199                       # Core power per rank (mW)
system.mem_ctrls_1.totalIdleTime          11629519250                       # Total Idle time Per DRAM Rank
system.mem_ctrls_1.memoryStateTime::IDLE      9701250                       # Time in different power states
system.mem_ctrls_1.memoryStateTime::REF     509866000                       # Time in different power states
system.mem_ctrls_1.memoryStateTime::SREF      5533250                       # Time in different power states
system.mem_ctrls_1.memoryStateTime::PRE_PDN    260013500                       # Time in different power states
system.mem_ctrls_1.memoryStateTime::ACT    3117739750                       # Time in different power states
system.mem_ctrls_1.memoryStateTime::ACT_PDN  11364490375                       # Time in different power states
system.pwrStateResidencyTicks::UNDEFINED  15267344125                       # Cumulative time (in ticks) in various power states
system.cpu0.branchPred.lookups                1558392                       # Number of BP lookups
system.cpu0.branchPred.condPredicted          1558392                       # Number of conditional branches predicted
system.cpu0.branchPred.condIncorrect            68157                       # Number of conditional branches incorrect
system.cpu0.branchPred.BTBLookups             1239339                       # Number of BTB lookups
system.cpu0.branchPred.BTBHits                      0                       # Number of BTB hits
system.cpu0.branchPred.BTBCorrect                   0                       # Number of correct BTB predictions (this stat may not work properly.
system.cpu0.branchPred.BTBHitPct             0.000000                       # BTB Hit Percentage
system.cpu0.branchPred.usedRAS                  47771                       # Number of times the RAS was used to get a target.
system.cpu0.branchPred.RASInCorrect              9458                       # Number of incorrect RAS predictions.
system.cpu0.branchPred.indirectLookups        1239339                       # Number of indirect predictor lookups.
system.cpu0.branchPred.indirectHits            655218                       # Number of indirect target hits.
system.cpu0.branchPred.indirectMisses          584121                       # Number of indirect misses.
system.cpu0.branchPredindirectMispredicted        18597                       # Number of mispredicted indirect branches.
system.cpu_voltage_domain.voltage                   1                       # Voltage in Volts
system.cpu_clk_domain.clock                       500                       # Clock period in ticks
system.cpu0.dtb.walker.pwrStateResidencyTicks::UNDEFINED  15267344125                       # Cumulative time (in ticks) in various power states
system.cpu0.dtb.rdAccesses                     767506                       # TLB accesses on read requests
system.cpu0.dtb.wrAccesses                      51274                       # TLB accesses on write requests
system.cpu0.dtb.rdMisses                       155596                       # TLB misses on read requests
system.cpu0.dtb.wrMisses                          910                       # TLB misses on write requests
system.cpu0.apic_clk_domain.clock                8000                       # Clock period in ticks
system.cpu0.interrupts.pwrStateResidencyTicks::UNDEFINED  15267344125                       # Cumulative time (in ticks) in various power states
system.cpu0.itb.walker.pwrStateResidencyTicks::UNDEFINED  15267344125                       # Cumulative time (in ticks) in various power states
system.cpu0.itb.rdAccesses                          0                       # TLB accesses on read requests
system.cpu0.itb.wrAccesses                    1288464                       # TLB accesses on write requests
system.cpu0.itb.rdMisses                            0                       # TLB misses on read requests
system.cpu0.itb.wrMisses                         9660                       # TLB misses on write requests
system.cpu0.workload.numSyscalls                    0                       # Number of system calls
system.cpu0.pwrStateResidencyTicks::ON    15267344125                       # Cumulative time (in ticks) in various power states
system.cpu0.numCycles                        30534688                       # number of cpu cycles simulated
system.cpu0.numWorkItemsStarted                     0                       # number of work items this cpu started
system.cpu0.numWorkItemsCompleted                   0                       # number of work items this cpu completed
system.cpu0.fetch.icacheStallCycles           1315434                       # Number of cycles fetch is stalled on an Icache miss
system.cpu0.fetch.Insts                       4580654                       # Number of instructions fetch has processed
system.cpu0.fetch.Branches                    1558392                       # Number of branches that fetch encountered
system.cpu0.fetch.predictedBranches            702989                       # Number of branches that fetch has predicted taken
system.cpu0.fetch.Cycles                     28952256                       # Number of cycles fetch has run and was not squashing or blocked
system.cpu0.fetch.SquashCycles                 143052                       # Number of cycles fetch has spent squashing
system.cpu0.fetch.TlbCycles                      5221                       # Number of cycles fetch has spent waiting for tlb
system.cpu0.fetch.MiscStallCycles                2289                       # Number of cycles fetch has spent waiting on interrupts, or bad addresses, or out of MSHRs
system.cpu0.fetch.PendingTrapStallCycles        86385                       # Number of stall cycles due to pending traps
system.cpu0.fetch.CacheLines                  1278804                       # Number of cache lines fetched
system.cpu0.fetch.IcacheSquashes                 6526                       # Number of outstanding Icache misses that were squashed
system.cpu0.fetch.ItlbSquashes                     15                       # Number of outstanding ITLB misses that were squashed
system.cpu0.fetch.rateDist::samples          30433111                       # Number of instructions fetched each cycle (Total)
system.cpu0.fetch.rateDist::mean             0.302733                       # Number of instructions fetched each cycle (Total)
system.cpu0.fetch.rateDist::stdev            1.386345                       # Number of instructions fetched each cycle (Total)
system.cpu0.fetch.rateDist::underflows              0      0.00%      0.00% # Number of instructions fetched each cycle (Total)
system.cpu0.fetch.rateDist::0                28659845     94.17%     94.17% # Number of instructions fetched each cycle (Total)
system.cpu0.fetch.rateDist::1                   17637      0.06%     94.23% # Number of instructions fetched each cycle (Total)
system.cpu0.fetch.rateDist::2                  633427      2.08%     96.31% # Number of instructions fetched each cycle (Total)
system.cpu0.fetch.rateDist::3                   26712      0.09%     96.40% # Number of instructions fetched each cycle (Total)
system.cpu0.fetch.rateDist::4                  125760      0.41%     96.81% # Number of instructions fetched each cycle (Total)
system.cpu0.fetch.rateDist::5                   70772      0.23%     97.05% # Number of instructions fetched each cycle (Total)
system.cpu0.fetch.rateDist::6                   87465      0.29%     97.33% # Number of instructions fetched each cycle (Total)
system.cpu0.fetch.rateDist::7                   25162      0.08%     97.42% # Number of instructions fetched each cycle (Total)
system.cpu0.fetch.rateDist::8                  786331      2.58%    100.00% # Number of instructions fetched each cycle (Total)
system.cpu0.fetch.rateDist::overflows               0      0.00%    100.00% # Number of instructions fetched each cycle (Total)
system.cpu0.fetch.rateDist::min_value               0                       # Number of instructions fetched each cycle (Total)
system.cpu0.fetch.rateDist::max_value               8                       # Number of instructions fetched each cycle (Total)
system.cpu0.fetch.rateDist::total            30433111                       # Number of instructions fetched each cycle (Total)
system.cpu0.fetch.branchRate                 0.051037                       # Number of branch fetches per cycle
system.cpu0.fetch.rate                       0.150015                       # Number of inst fetches per cycle
system.cpu0.decode.IdleCycles                  660331                       # Number of cycles decode is idle
system.cpu0.decode.BlockedCycles             28556610                       # Number of cycles decode is blocked
system.cpu0.decode.RunCycles                   828163                       # Number of cycles decode is running
system.cpu0.decode.UnblockCycles               316481                       # Number of cycles decode is unblocking
system.cpu0.decode.SquashCycles                 71526                       # Number of cycles decode is squashing
system.cpu0.decode.DecodedInsts               7486446                       # Number of instructions handled by decode
system.cpu0.rename.SquashCycles                 71526                       # Number of cycles rename is squashing
system.cpu0.rename.IdleCycles                  757512                       # Number of cycles rename is idle
system.cpu0.rename.BlockCycles               27041086                       # Number of cycles rename is blocking
system.cpu0.rename.serializeStallCycles          8925                       # count of cycles rename stalled for serializing inst
system.cpu0.rename.RunCycles                   969612                       # Number of cycles rename is running
system.cpu0.rename.UnblockCycles              1584450                       # Number of cycles rename is unblocking
system.cpu0.rename.RenamedInsts               7171343                       # Number of instructions processed by rename
system.cpu0.rename.ROBFullEvents               111898                       # Number of times rename has blocked due to ROB full
system.cpu0.rename.IQFullEvents               1088331                       # Number of times rename has blocked due to IQ full
system.cpu0.rename.LQFullEvents                473975                       # Number of times rename has blocked due to LQ full
system.cpu0.rename.SQFullEvents                   338                       # Number of times rename has blocked due to SQ full
system.cpu0.rename.RenamedOperands            8526027                       # Number of destination operands rename has renamed
system.cpu0.rename.RenameLookups             19906401                       # Number of register rename lookups that rename has made
system.cpu0.rename.int_rename_lookups         9412098                       # Number of integer rename lookups
system.cpu0.rename.fp_rename_lookups            27990                       # Number of floating rename lookups
system.cpu0.rename.CommittedMaps              2980254                       # Number of HB maps that are committed
system.cpu0.rename.UndoneMaps                 5545770                       # Number of HB maps that are undone due to squashing
system.cpu0.rename.serializingInsts               461                       # count of serializing insts renamed
system.cpu0.rename.tempSerializingInsts           506                       # count of temporary serializing insts renamed
system.cpu0.rename.skidInsts                  2061368                       # count of insts added to the skid buffer
system.cpu0.memDep0.insertedLoads             1316263                       # Number of loads inserted to the mem dependence unit.
system.cpu0.memDep0.insertedStores              73695                       # Number of stores inserted to the mem dependence unit.
system.cpu0.memDep0.conflictingLoads             3422                       # Number of conflicting loads.
system.cpu0.memDep0.conflictingStores            3537                       # Number of conflicting stores.
system.cpu0.iq.iqInstsAdded                   6832745                       # Number of instructions added to the IQ (excludes non-spec)
system.cpu0.iq.iqNonSpecInstsAdded               3682                       # Number of non-speculative instructions added to the IQ
system.cpu0.iq.iqInstsIssued                  4938864                       # Number of instructions issued
system.cpu0.iq.iqSquashedInstsIssued             5053                       # Number of squashed instructions issued
system.cpu0.iq.iqSquashedInstsExamined        4348057                       # Number of squashed instructions iterated over during squash; mainly for profiling
system.cpu0.iq.iqSquashedOperandsExamined      8739636                       # Number of squashed operands that are examined and possibly removed from graph
system.cpu0.iq.iqSquashedNonSpecRemoved          3682                       # Number of squashed non-spec instructions that were removed
system.cpu0.iq.issued_per_cycle::samples     30433111                       # Number of insts issued each cycle
system.cpu0.iq.issued_per_cycle::mean        0.162286                       # Number of insts issued each cycle
system.cpu0.iq.issued_per_cycle::stdev       0.727345                       # Number of insts issued each cycle
system.cpu0.iq.issued_per_cycle::underflows            0      0.00%      0.00% # Number of insts issued each cycle
system.cpu0.iq.issued_per_cycle::0           28365892     93.21%     93.21% # Number of insts issued each cycle
system.cpu0.iq.issued_per_cycle::1             837005      2.75%     95.96% # Number of insts issued each cycle
system.cpu0.iq.issued_per_cycle::2             443988      1.46%     97.42% # Number of insts issued each cycle
system.cpu0.iq.issued_per_cycle::3             299497      0.98%     98.40% # Number of insts issued each cycle
system.cpu0.iq.issued_per_cycle::4             288217      0.95%     99.35% # Number of insts issued each cycle
system.cpu0.iq.issued_per_cycle::5              86247      0.28%     99.63% # Number of insts issued each cycle
system.cpu0.iq.issued_per_cycle::6              71485      0.23%     99.87% # Number of insts issued each cycle
system.cpu0.iq.issued_per_cycle::7              23861      0.08%     99.94% # Number of insts issued each cycle
system.cpu0.iq.issued_per_cycle::8              16919      0.06%    100.00% # Number of insts issued each cycle
system.cpu0.iq.issued_per_cycle::overflows            0      0.00%    100.00% # Number of insts issued each cycle
system.cpu0.iq.issued_per_cycle::min_value            0                       # Number of insts issued each cycle
system.cpu0.iq.issued_per_cycle::max_value            8                       # Number of insts issued each cycle
system.cpu0.iq.issued_per_cycle::total       30433111                       # Number of insts issued each cycle
system.cpu0.iq.fu_full::No_OpClass                  0      0.00%      0.00% # attempts to use FU when none available
system.cpu0.iq.fu_full::IntAlu                   9020     65.01%     65.01% # attempts to use FU when none available
system.cpu0.iq.fu_full::IntMult                     0      0.00%     65.01% # attempts to use FU when none available
system.cpu0.iq.fu_full::IntDiv                      0      0.00%     65.01% # attempts to use FU when none available
system.cpu0.iq.fu_full::FloatAdd                  893      6.44%     71.45% # attempts to use FU when none available
system.cpu0.iq.fu_full::FloatCmp                    0      0.00%     71.45% # attempts to use FU when none available
system.cpu0.iq.fu_full::FloatCvt                    0      0.00%     71.45% # attempts to use FU when none available
system.cpu0.iq.fu_full::FloatMult                   0      0.00%     71.45% # attempts to use FU when none available
system.cpu0.iq.fu_full::FloatMultAcc                0      0.00%     71.45% # attempts to use FU when none available
system.cpu0.iq.fu_full::FloatDiv                    0      0.00%     71.45% # attempts to use FU when none available
system.cpu0.iq.fu_full::FloatMisc                   0      0.00%     71.45% # attempts to use FU when none available
system.cpu0.iq.fu_full::FloatSqrt                   0      0.00%     71.45% # attempts to use FU when none available
system.cpu0.iq.fu_full::SimdAdd                     0      0.00%     71.45% # attempts to use FU when none available
system.cpu0.iq.fu_full::SimdAddAcc                  0      0.00%     71.45% # attempts to use FU when none available
system.cpu0.iq.fu_full::SimdAlu                     0      0.00%     71.45% # attempts to use FU when none available
system.cpu0.iq.fu_full::SimdCmp                     0      0.00%     71.45% # attempts to use FU when none available
system.cpu0.iq.fu_full::SimdCvt                     0      0.00%     71.45% # attempts to use FU when none available
system.cpu0.iq.fu_full::SimdMisc                    0      0.00%     71.45% # attempts to use FU when none available
system.cpu0.iq.fu_full::SimdMult                    0      0.00%     71.45% # attempts to use FU when none available
system.cpu0.iq.fu_full::SimdMultAcc                 0      0.00%     71.45% # attempts to use FU when none available
system.cpu0.iq.fu_full::SimdShift                   0      0.00%     71.45% # attempts to use FU when none available
system.cpu0.iq.fu_full::SimdShiftAcc                0      0.00%     71.45% # attempts to use FU when none available
system.cpu0.iq.fu_full::SimdSqrt                    0      0.00%     71.45% # attempts to use FU when none available
system.cpu0.iq.fu_full::SimdFloatAdd                0      0.00%     71.45% # attempts to use FU when none available
system.cpu0.iq.fu_full::SimdFloatAlu                0      0.00%     71.45% # attempts to use FU when none available
system.cpu0.iq.fu_full::SimdFloatCmp                0      0.00%     71.45% # attempts to use FU when none available
system.cpu0.iq.fu_full::SimdFloatCvt                0      0.00%     71.45% # attempts to use FU when none available
system.cpu0.iq.fu_full::SimdFloatDiv                0      0.00%     71.45% # attempts to use FU when none available
system.cpu0.iq.fu_full::SimdFloatMisc               0      0.00%     71.45% # attempts to use FU when none available
system.cpu0.iq.fu_full::SimdFloatMult               0      0.00%     71.45% # attempts to use FU when none available
system.cpu0.iq.fu_full::SimdFloatMultAcc            0      0.00%     71.45% # attempts to use FU when none available
system.cpu0.iq.fu_full::SimdFloatSqrt               0      0.00%     71.45% # attempts to use FU when none available
system.cpu0.iq.fu_full::MemRead                  3698     26.65%     98.10% # attempts to use FU when none available
system.cpu0.iq.fu_full::MemWrite                  206      1.48%     99.58% # attempts to use FU when none available
system.cpu0.iq.fu_full::FloatMemRead                3      0.02%     99.60% # attempts to use FU when none available
system.cpu0.iq.fu_full::FloatMemWrite              55      0.40%    100.00% # attempts to use FU when none available
system.cpu0.iq.fu_full::IprAccess                   0      0.00%    100.00% # attempts to use FU when none available
system.cpu0.iq.fu_full::InstPrefetch                0      0.00%    100.00% # attempts to use FU when none available
system.cpu0.iq.FU_type_0::No_OpClass            19871      0.40%      0.40% # Type of FU issued
system.cpu0.iq.FU_type_0::IntAlu              4043929     81.88%     82.28% # Type of FU issued
system.cpu0.iq.FU_type_0::IntMult                 932      0.02%     82.30% # Type of FU issued
system.cpu0.iq.FU_type_0::IntDiv                 7155      0.14%     82.45% # Type of FU issued
system.cpu0.iq.FU_type_0::FloatAdd              11197      0.23%     82.67% # Type of FU issued
system.cpu0.iq.FU_type_0::FloatCmp                  0      0.00%     82.67% # Type of FU issued
system.cpu0.iq.FU_type_0::FloatCvt                  0      0.00%     82.67% # Type of FU issued
system.cpu0.iq.FU_type_0::FloatMult                 0      0.00%     82.67% # Type of FU issued
system.cpu0.iq.FU_type_0::FloatMultAcc              0      0.00%     82.67% # Type of FU issued
system.cpu0.iq.FU_type_0::FloatDiv                  0      0.00%     82.67% # Type of FU issued
system.cpu0.iq.FU_type_0::FloatMisc                 0      0.00%     82.67% # Type of FU issued
system.cpu0.iq.FU_type_0::FloatSqrt                 0      0.00%     82.67% # Type of FU issued
system.cpu0.iq.FU_type_0::SimdAdd                   0      0.00%     82.67% # Type of FU issued
system.cpu0.iq.FU_type_0::SimdAddAcc                0      0.00%     82.67% # Type of FU issued
system.cpu0.iq.FU_type_0::SimdAlu                   0      0.00%     82.67% # Type of FU issued
system.cpu0.iq.FU_type_0::SimdCmp                   0      0.00%     82.67% # Type of FU issued
system.cpu0.iq.FU_type_0::SimdCvt                   0      0.00%     82.67% # Type of FU issued
system.cpu0.iq.FU_type_0::SimdMisc                  0      0.00%     82.67% # Type of FU issued
system.cpu0.iq.FU_type_0::SimdMult                  0      0.00%     82.67% # Type of FU issued
system.cpu0.iq.FU_type_0::SimdMultAcc               0      0.00%     82.67% # Type of FU issued
system.cpu0.iq.FU_type_0::SimdShift                 0      0.00%     82.67% # Type of FU issued
system.cpu0.iq.FU_type_0::SimdShiftAcc              0      0.00%     82.67% # Type of FU issued
system.cpu0.iq.FU_type_0::SimdSqrt                  0      0.00%     82.67% # Type of FU issued
system.cpu0.iq.FU_type_0::SimdFloatAdd              0      0.00%     82.67% # Type of FU issued
system.cpu0.iq.FU_type_0::SimdFloatAlu              0      0.00%     82.67% # Type of FU issued
system.cpu0.iq.FU_type_0::SimdFloatCmp              0      0.00%     82.67% # Type of FU issued
system.cpu0.iq.FU_type_0::SimdFloatCvt              0      0.00%     82.67% # Type of FU issued
system.cpu0.iq.FU_type_0::SimdFloatDiv              0      0.00%     82.67% # Type of FU issued
system.cpu0.iq.FU_type_0::SimdFloatMisc             0      0.00%     82.67% # Type of FU issued
system.cpu0.iq.FU_type_0::SimdFloatMult             0      0.00%     82.67% # Type of FU issued
system.cpu0.iq.FU_type_0::SimdFloatMultAcc            0      0.00%     82.67% # Type of FU issued
system.cpu0.iq.FU_type_0::SimdFloatSqrt             0      0.00%     82.67% # Type of FU issued
system.cpu0.iq.FU_type_0::MemRead              799311     16.18%     98.86% # Type of FU issued
system.cpu0.iq.FU_type_0::MemWrite              55012      1.11%     99.97% # Type of FU issued
system.cpu0.iq.FU_type_0::FloatMemRead           1260      0.03%    100.00% # Type of FU issued
system.cpu0.iq.FU_type_0::FloatMemWrite           197      0.00%    100.00% # Type of FU issued
system.cpu0.iq.FU_type_0::IprAccess                 0      0.00%    100.00% # Type of FU issued
system.cpu0.iq.FU_type_0::InstPrefetch              0      0.00%    100.00% # Type of FU issued
system.cpu0.iq.FU_type_0::total               4938864                       # Type of FU issued
system.cpu0.iq.rate                          0.161746                       # Inst issue rate
system.cpu0.iq.fu_busy_cnt                      13875                       # FU busy when requested
system.cpu0.iq.fu_busy_rate                  0.002809                       # FU busy rate (busy events/executed inst)
system.cpu0.iq.int_inst_queue_reads          40303319                       # Number of integer instruction queue reads
system.cpu0.iq.int_inst_queue_writes         11161845                       # Number of integer instruction queue writes
system.cpu0.iq.int_inst_queue_wakeup_accesses      4740303                       # Number of integer instruction queue wakeup accesses
system.cpu0.iq.fp_inst_queue_reads              26448                       # Number of floating instruction queue reads
system.cpu0.iq.fp_inst_queue_writes             22644                       # Number of floating instruction queue writes
system.cpu0.iq.fp_inst_queue_wakeup_accesses        12116                       # Number of floating instruction queue wakeup accesses
system.cpu0.iq.vec_inst_queue_reads                 0                       # Number of vector instruction queue reads
system.cpu0.iq.vec_inst_queue_writes                0                       # Number of vector instruction queue writes
system.cpu0.iq.vec_inst_queue_wakeup_accesses            0                       # Number of vector instruction queue wakeup accesses
system.cpu0.iq.int_alu_accesses               4919249                       # Number of integer alu accesses
system.cpu0.iq.fp_alu_accesses                  13619                       # Number of floating point alu accesses
system.cpu0.iq.vec_alu_accesses                     0                       # Number of vector alu accesses
system.cpu0.iew.lsq.thread0.forwLoads            3649                       # Number of loads that had data forwarded from stores
system.cpu0.iew.lsq.thread0.invAddrLoads            0                       # Number of loads ignored due to an invalid address
system.cpu0.iew.lsq.thread0.squashedLoads       836263                       # Number of loads squashed
system.cpu0.iew.lsq.thread0.ignoredResponses          141                       # Number of memory responses ignored because the instruction is squashed
system.cpu0.iew.lsq.thread0.memOrderViolation            5                       # Number of memory ordering violations
system.cpu0.iew.lsq.thread0.squashedStores        53215                       # Number of stores squashed
system.cpu0.iew.lsq.thread0.invAddrSwpfs            0                       # Number of software prefetches ignored due to an invalid address
system.cpu0.iew.lsq.thread0.blockedLoads            0                       # Number of blocked loads due to partial load-store forwarding
system.cpu0.iew.lsq.thread0.rescheduledLoads           21                       # Number of loads that were rescheduled
system.cpu0.iew.lsq.thread0.cacheBlocked         1234                       # Number of times an access to memory failed due to the cache being blocked
system.cpu0.iew.iewIdleCycles                       0                       # Number of cycles IEW is idle
system.cpu0.iew.iewSquashCycles                 71526                       # Number of cycles IEW is squashing
system.cpu0.iew.iewBlockCycles               24592549                       # Number of cycles IEW is blocking
system.cpu0.iew.iewUnblockCycles               330578                       # Number of cycles IEW is unblocking
system.cpu0.iew.iewDispatchedInsts            6836427                       # Number of instructions dispatched to IQ
system.cpu0.iew.iewDispSquashedInsts             5775                       # Number of squashed instructions skipped by dispatch
system.cpu0.iew.iewDispLoadInsts              1316263                       # Number of dispatched load instructions
system.cpu0.iew.iewDispStoreInsts               73695                       # Number of dispatched store instructions
system.cpu0.iew.iewDispNonSpecInsts              1485                       # Number of dispatched non-speculative instructions
system.cpu0.iew.iewIQFullEvents                 18106                       # Number of times the IQ has become full, causing a stall
system.cpu0.iew.iewLSQFullEvents               123825                       # Number of times the LSQ has become full, causing a stall
system.cpu0.iew.memOrderViolationEvents             5                       # Number of memory order violations
system.cpu0.iew.predictedTakenIncorrect         38902                       # Number of branches that were predicted taken incorrectly
system.cpu0.iew.predictedNotTakenIncorrect        39657                       # Number of branches that were predicted not taken incorrectly
system.cpu0.iew.branchMispredicts               78559                       # Number of branch mispredicts detected at execute
system.cpu0.iew.iewExecutedInsts              4853300                       # Number of executed instructions
system.cpu0.iew.iewExecLoadInsts               767320                       # Number of load instructions executed
system.cpu0.iew.iewExecSquashedInsts            85564                       # Number of squashed instructions skipped in execute
system.cpu0.iew.exec_swp                            0                       # number of swp insts executed
system.cpu0.iew.exec_nop                            0                       # number of nop insts executed
system.cpu0.iew.exec_refs                      818578                       # number of memory reference insts executed
system.cpu0.iew.exec_branches                  585769                       # Number of branches executed
system.cpu0.iew.exec_stores                     51258                       # Number of stores executed
system.cpu0.iew.exec_rate                    0.158944                       # Inst execution rate
system.cpu0.iew.wb_sent                       4769388                       # cumulative count of insts sent to commit
system.cpu0.iew.wb_count                      4752419                       # cumulative count of insts written-back
system.cpu0.iew.wb_producers                  3465820                       # num instructions producing a value
system.cpu0.iew.wb_consumers                  5486249                       # num instructions consuming a value
system.cpu0.iew.wb_rate                      0.155640                       # insts written-back per cycle
system.cpu0.iew.wb_fanout                    0.631729                       # average fanout of values written-back
system.cpu0.commit.commitSquashedInsts        4349262                       # The number of squashed insts skipped by commit
system.cpu0.commit.branchMispredicts            71524                       # The number of times a branch was mispredicted
system.cpu0.commit.committed_per_cycle::samples     29805624                       # Number of insts commited each cycle
system.cpu0.commit.committed_per_cycle::mean     0.083486                       # Number of insts commited each cycle
system.cpu0.commit.committed_per_cycle::stdev     0.521688                       # Number of insts commited each cycle
system.cpu0.commit.committed_per_cycle::underflows            0      0.00%      0.00% # Number of insts commited each cycle
system.cpu0.commit.committed_per_cycle::0     28697369     96.28%     96.28% # Number of insts commited each cycle
system.cpu0.commit.committed_per_cycle::1       518974      1.74%     98.02% # Number of insts commited each cycle
system.cpu0.commit.committed_per_cycle::2       121612      0.41%     98.43% # Number of insts commited each cycle
system.cpu0.commit.committed_per_cycle::3       336478      1.13%     99.56% # Number of insts commited each cycle
system.cpu0.commit.committed_per_cycle::4        57723      0.19%     99.75% # Number of insts commited each cycle
system.cpu0.commit.committed_per_cycle::5        30055      0.10%     99.85% # Number of insts commited each cycle
system.cpu0.commit.committed_per_cycle::6         4281      0.01%     99.87% # Number of insts commited each cycle
system.cpu0.commit.committed_per_cycle::7         3175      0.01%     99.88% # Number of insts commited each cycle
system.cpu0.commit.committed_per_cycle::8        35957      0.12%    100.00% # Number of insts commited each cycle
system.cpu0.commit.committed_per_cycle::overflows            0      0.00%    100.00% # Number of insts commited each cycle
system.cpu0.commit.committed_per_cycle::min_value            0                       # Number of insts commited each cycle
system.cpu0.commit.committed_per_cycle::max_value            8                       # Number of insts commited each cycle
system.cpu0.commit.committed_per_cycle::total     29805624                       # Number of insts commited each cycle
system.cpu0.commit.committedInsts             1245265                       # Number of instructions committed
system.cpu0.commit.committedOps               2488366                       # Number of ops (including micro ops) committed
system.cpu0.commit.swp_count                        0                       # Number of s/w prefetches committed
system.cpu0.commit.refs                        500478                       # Number of memory references committed
system.cpu0.commit.loads                       479998                       # Number of loads committed
system.cpu0.commit.membars                          0                       # Number of memory barriers committed
system.cpu0.commit.branches                    456924                       # Number of branches committed
system.cpu0.commit.vec_insts                        0                       # Number of committed Vector instructions.
system.cpu0.commit.fp_insts                      8082                       # Number of committed floating point instructions.
system.cpu0.commit.int_insts                  2480154                       # Number of committed integer instructions.
system.cpu0.commit.function_calls                3600                       # Number of function calls committed.
system.cpu0.commit.op_class_0::No_OpClass         2446      0.10%      0.10% # Class of committed instruction
system.cpu0.commit.op_class_0::IntAlu         1972478     79.27%     79.37% # Class of committed instruction
system.cpu0.commit.op_class_0::IntMult            144      0.01%     79.37% # Class of committed instruction
system.cpu0.commit.op_class_0::IntDiv            5896      0.24%     79.61% # Class of committed instruction
system.cpu0.commit.op_class_0::FloatAdd          6924      0.28%     79.89% # Class of committed instruction
system.cpu0.commit.op_class_0::FloatCmp             0      0.00%     79.89% # Class of committed instruction
system.cpu0.commit.op_class_0::FloatCvt             0      0.00%     79.89% # Class of committed instruction
system.cpu0.commit.op_class_0::FloatMult            0      0.00%     79.89% # Class of committed instruction
system.cpu0.commit.op_class_0::FloatMultAcc            0      0.00%     79.89% # Class of committed instruction
system.cpu0.commit.op_class_0::FloatDiv             0      0.00%     79.89% # Class of committed instruction
system.cpu0.commit.op_class_0::FloatMisc            0      0.00%     79.89% # Class of committed instruction
system.cpu0.commit.op_class_0::FloatSqrt            0      0.00%     79.89% # Class of committed instruction
system.cpu0.commit.op_class_0::SimdAdd              0      0.00%     79.89% # Class of committed instruction
system.cpu0.commit.op_class_0::SimdAddAcc            0      0.00%     79.89% # Class of committed instruction
system.cpu0.commit.op_class_0::SimdAlu              0      0.00%     79.89% # Class of committed instruction
system.cpu0.commit.op_class_0::SimdCmp              0      0.00%     79.89% # Class of committed instruction
system.cpu0.commit.op_class_0::SimdCvt              0      0.00%     79.89% # Class of committed instruction
system.cpu0.commit.op_class_0::SimdMisc             0      0.00%     79.89% # Class of committed instruction
system.cpu0.commit.op_class_0::SimdMult             0      0.00%     79.89% # Class of committed instruction
system.cpu0.commit.op_class_0::SimdMultAcc            0      0.00%     79.89% # Class of committed instruction
system.cpu0.commit.op_class_0::SimdShift            0      0.00%     79.89% # Class of committed instruction
system.cpu0.commit.op_class_0::SimdShiftAcc            0      0.00%     79.89% # Class of committed instruction
system.cpu0.commit.op_class_0::SimdSqrt             0      0.00%     79.89% # Class of committed instruction
system.cpu0.commit.op_class_0::SimdFloatAdd            0      0.00%     79.89% # Class of committed instruction
system.cpu0.commit.op_class_0::SimdFloatAlu            0      0.00%     79.89% # Class of committed instruction
system.cpu0.commit.op_class_0::SimdFloatCmp            0      0.00%     79.89% # Class of committed instruction
system.cpu0.commit.op_class_0::SimdFloatCvt            0      0.00%     79.89% # Class of committed instruction
system.cpu0.commit.op_class_0::SimdFloatDiv            0      0.00%     79.89% # Class of committed instruction
system.cpu0.commit.op_class_0::SimdFloatMisc            0      0.00%     79.89% # Class of committed instruction
system.cpu0.commit.op_class_0::SimdFloatMult            0      0.00%     79.89% # Class of committed instruction
system.cpu0.commit.op_class_0::SimdFloatMultAcc            0      0.00%     79.89% # Class of committed instruction
system.cpu0.commit.op_class_0::SimdFloatSqrt            0      0.00%     79.89% # Class of committed instruction
system.cpu0.commit.op_class_0::MemRead         478840     19.24%     99.13% # Class of committed instruction
system.cpu0.commit.op_class_0::MemWrite         20480      0.82%     99.95% # Class of committed instruction
system.cpu0.commit.op_class_0::FloatMemRead         1158      0.05%    100.00% # Class of committed instruction
system.cpu0.commit.op_class_0::FloatMemWrite            0      0.00%    100.00% # Class of committed instruction
system.cpu0.commit.op_class_0::IprAccess            0      0.00%    100.00% # Class of committed instruction
system.cpu0.commit.op_class_0::InstPrefetch            0      0.00%    100.00% # Class of committed instruction
system.cpu0.commit.op_class_0::total          2488366                       # Class of committed instruction
system.cpu0.commit.bw_lim_events                35957                       # number cycles where commit BW limit reached
system.cpu0.rob.rob_reads                    36607295                       # The number of ROB reads
system.cpu0.rob.rob_writes                   14303931                       # The number of ROB writes
system.cpu0.timesIdled                            789                       # Number of times that the entire CPU went into an idle state and unscheduled itself
system.cpu0.idleCycles                         101577                       # Total number of cycles that the CPU has spent unscheduled due to idling
system.cpu0.committedInsts                    1245265                       # Number of Instructions Simulated
system.cpu0.committedOps                      2488366                       # Number of Ops (including micro ops) Simulated
system.cpu0.cpi                             24.520635                       # CPI: Cycles Per Instruction
system.cpu0.cpi_total                       24.520635                       # CPI: Total CPI of All Threads
system.cpu0.ipc                              0.040782                       # IPC: Instructions Per Cycle
system.cpu0.ipc_total                        0.040782                       # IPC: Total IPC of All Threads
system.cpu0.int_regfile_reads                 4903792                       # number of integer regfile reads
system.cpu0.int_regfile_writes                4117402                       # number of integer regfile writes
system.cpu0.fp_regfile_reads                    21809                       # number of floating regfile reads
system.cpu0.fp_regfile_writes                   10836                       # number of floating regfile writes
system.cpu0.cc_regfile_reads                  3053865                       # number of cc regfile reads
system.cpu0.cc_regfile_writes                 1311937                       # number of cc regfile writes
system.cpu0.misc_regfile_reads                2568843                       # number of misc regfile reads
system.cpu0.dcache.tags.pwrStateResidencyTicks::UNDEFINED  15267344125                       # Cumulative time (in ticks) in various power states
system.cpu0.dcache.tags.replacements           257715                       # number of replacements
system.cpu0.dcache.tags.tagsinuse                1024                       # Cycle average of tags in use
system.cpu0.dcache.tags.total_refs             323213                       # Total number of references to valid blocks.
system.cpu0.dcache.tags.sampled_refs           257715                       # Sample count of references to valid blocks.
system.cpu0.dcache.tags.avg_refs             1.254149                       # Average number of references to valid blocks.
system.cpu0.dcache.tags.warmup_cycle                0                       # Cycle when the warmup percentage was hit.
system.cpu0.dcache.tags.occ_blocks::cpu0.data         1024                       # Average occupied blocks per requestor
system.cpu0.dcache.tags.occ_percent::cpu0.data            1                       # Average percentage of cache occupancy
system.cpu0.dcache.tags.occ_percent::total            1                       # Average percentage of cache occupancy
system.cpu0.dcache.tags.occ_task_id_blocks::1024         1024                       # Occupied blocks per task id
system.cpu0.dcache.tags.age_task_id_blocks_1024::0          143                       # Occupied blocks per task id
system.cpu0.dcache.tags.age_task_id_blocks_1024::1          850                       # Occupied blocks per task id
system.cpu0.dcache.tags.age_task_id_blocks_1024::2           31                       # Occupied blocks per task id
system.cpu0.dcache.tags.occ_task_id_percent::1024            1                       # Percentage of cache occupancy per task id
system.cpu0.dcache.tags.tag_accesses          3380667                       # Number of tag accesses
system.cpu0.dcache.tags.data_accesses         3380667                       # Number of data accesses
system.cpu0.dcache.pwrStateResidencyTicks::UNDEFINED  15267344125                       # Cumulative time (in ticks) in various power states
system.cpu0.dcache.ReadReq_hits::cpu0.data       306550                       # number of ReadReq hits
system.cpu0.dcache.ReadReq_hits::total         306550                       # number of ReadReq hits
system.cpu0.dcache.WriteReq_hits::cpu0.data        19626                       # number of WriteReq hits
system.cpu0.dcache.WriteReq_hits::total         19626                       # number of WriteReq hits
system.cpu0.dcache.demand_hits::cpu0.data       326176                       # number of demand (read+write) hits
system.cpu0.dcache.demand_hits::total          326176                       # number of demand (read+write) hits
system.cpu0.dcache.overall_hits::cpu0.data       326176                       # number of overall hits
system.cpu0.dcache.overall_hits::total         326176                       # number of overall hits
system.cpu0.dcache.ReadReq_misses::cpu0.data       453708                       # number of ReadReq misses
system.cpu0.dcache.ReadReq_misses::total       453708                       # number of ReadReq misses
system.cpu0.dcache.WriteReq_misses::cpu0.data          854                       # number of WriteReq misses
system.cpu0.dcache.WriteReq_misses::total          854                       # number of WriteReq misses
system.cpu0.dcache.demand_misses::cpu0.data       454562                       # number of demand (read+write) misses
system.cpu0.dcache.demand_misses::total        454562                       # number of demand (read+write) misses
system.cpu0.dcache.overall_misses::cpu0.data       454562                       # number of overall misses
system.cpu0.dcache.overall_misses::total       454562                       # number of overall misses
system.cpu0.dcache.ReadReq_miss_latency::cpu0.data  34481582000                       # number of ReadReq miss cycles
system.cpu0.dcache.ReadReq_miss_latency::total  34481582000                       # number of ReadReq miss cycles
system.cpu0.dcache.WriteReq_miss_latency::cpu0.data     28543999                       # number of WriteReq miss cycles
system.cpu0.dcache.WriteReq_miss_latency::total     28543999                       # number of WriteReq miss cycles
system.cpu0.dcache.demand_miss_latency::cpu0.data  34510125999                       # number of demand (read+write) miss cycles
system.cpu0.dcache.demand_miss_latency::total  34510125999                       # number of demand (read+write) miss cycles
system.cpu0.dcache.overall_miss_latency::cpu0.data  34510125999                       # number of overall miss cycles
system.cpu0.dcache.overall_miss_latency::total  34510125999                       # number of overall miss cycles
system.cpu0.dcache.ReadReq_accesses::cpu0.data       760258                       # number of ReadReq accesses(hits+misses)
system.cpu0.dcache.ReadReq_accesses::total       760258                       # number of ReadReq accesses(hits+misses)
system.cpu0.dcache.WriteReq_accesses::cpu0.data        20480                       # number of WriteReq accesses(hits+misses)
system.cpu0.dcache.WriteReq_accesses::total        20480                       # number of WriteReq accesses(hits+misses)
system.cpu0.dcache.demand_accesses::cpu0.data       780738                       # number of demand (read+write) accesses
system.cpu0.dcache.demand_accesses::total       780738                       # number of demand (read+write) accesses
system.cpu0.dcache.overall_accesses::cpu0.data       780738                       # number of overall (read+write) accesses
system.cpu0.dcache.overall_accesses::total       780738                       # number of overall (read+write) accesses
system.cpu0.dcache.ReadReq_miss_rate::cpu0.data     0.596782                       # miss rate for ReadReq accesses
system.cpu0.dcache.ReadReq_miss_rate::total     0.596782                       # miss rate for ReadReq accesses
system.cpu0.dcache.WriteReq_miss_rate::cpu0.data     0.041699                       # miss rate for WriteReq accesses
system.cpu0.dcache.WriteReq_miss_rate::total     0.041699                       # miss rate for WriteReq accesses
system.cpu0.dcache.demand_miss_rate::cpu0.data     0.582221                       # miss rate for demand accesses
system.cpu0.dcache.demand_miss_rate::total     0.582221                       # miss rate for demand accesses
system.cpu0.dcache.overall_miss_rate::cpu0.data     0.582221                       # miss rate for overall accesses
system.cpu0.dcache.overall_miss_rate::total     0.582221                       # miss rate for overall accesses
system.cpu0.dcache.ReadReq_avg_miss_latency::cpu0.data 75999.501882                       # average ReadReq miss latency
system.cpu0.dcache.ReadReq_avg_miss_latency::total 75999.501882                       # average ReadReq miss latency
system.cpu0.dcache.WriteReq_avg_miss_latency::cpu0.data 33423.886417                       # average WriteReq miss latency
system.cpu0.dcache.WriteReq_avg_miss_latency::total 33423.886417                       # average WriteReq miss latency
system.cpu0.dcache.demand_avg_miss_latency::cpu0.data 75919.513728                       # average overall miss latency
system.cpu0.dcache.demand_avg_miss_latency::total 75919.513728                       # average overall miss latency
system.cpu0.dcache.overall_avg_miss_latency::cpu0.data 75919.513728                       # average overall miss latency
[...]
system.l2.ReadSharedReq_hits::cpu0.data         65691                       # number of ReadSharedReq hits
system.l2.ReadSharedReq_hits::total             65691                       # number of ReadSharedReq hits
system.l2.demand_hits::cpu0.data                66346                       # number of demand (read+write) hits
system.l2.demand_hits::total                    66346                       # number of demand (read+write) hits
system.l2.overall_hits::cpu0.data               66346                       # number of overall hits
system.l2.overall_hits::total                   66346                       # number of overall hits
system.l2.ReadExReq_misses::cpu0.data             194                       # number of ReadExReq misses
system.l2.ReadExReq_misses::total                 194                       # number of ReadExReq misses
system.l2.ReadSharedReq_misses::cpu0.data       191176                       # number of ReadSharedReq misses
system.l2.ReadSharedReq_misses::total          191176                       # number of ReadSharedReq misses
system.l2.demand_misses::cpu0.data             191370                       # number of demand (read+write) misses
system.l2.demand_misses::total                 191370                       # number of demand (read+write) misses
system.l2.overall_misses::cpu0.data            191370                       # number of overall misses
system.l2.overall_misses::total                191370                       # number of overall misses
system.l2.ReadExReq_miss_latency::cpu0.data     19152000                       # number of ReadExReq miss cycles
system.l2.ReadExReq_miss_latency::total      19152000                       # number of ReadExReq miss cycles
system.l2.ReadSharedReq_miss_latency::cpu0.data  18137090000                       # number of ReadSharedReq miss cycles
system.l2.ReadSharedReq_miss_latency::total  18137090000                       # number of ReadSharedReq miss cycles
system.l2.demand_miss_latency::cpu0.data  18156242000                       # number of demand (read+write) miss cycles
system.l2.demand_miss_latency::total      18156242000                       # number of demand (read+write) miss cycles
system.l2.overall_miss_latency::cpu0.data  18156242000                       # number of overall miss cycles
system.l2.overall_miss_latency::total     18156242000                       # number of overall miss cycles
system.l2.WritebackDirty_accesses::writebacks         2212                       # number of WritebackDirty accesses(hits+misses)
system.l2.WritebackDirty_accesses::total         2212                       # number of WritebackDirty accesses(hits+misses)
system.l2.ReadExReq_accesses::cpu0.data           849                       # number of ReadExReq accesses(hits+misses)
system.l2.ReadExReq_accesses::total               849                       # number of ReadExReq accesses(hits+misses)
system.l2.ReadSharedReq_accesses::cpu0.data       256867                       # number of ReadSharedReq accesses(hits+misses)
system.l2.ReadSharedReq_accesses::total        256867                       # number of ReadSharedReq accesses(hits+misses)
system.l2.demand_accesses::cpu0.data           257716                       # number of demand (read+write) accesses
system.l2.demand_accesses::total               257716                       # number of demand (read+write) accesses
system.l2.overall_accesses::cpu0.data          257716                       # number of overall (read+write) accesses
system.l2.overall_accesses::total              257716                       # number of overall (read+write) accesses
system.l2.ReadExReq_miss_rate::cpu0.data     0.228504                       # miss rate for ReadExReq accesses
system.l2.ReadExReq_miss_rate::total         0.228504                       # miss rate for ReadExReq accesses
system.l2.ReadSharedReq_miss_rate::cpu0.data     0.744261                       # miss rate for ReadSharedReq accesses
system.l2.ReadSharedReq_miss_rate::total     0.744261                       # miss rate for ReadSharedReq accesses
system.l2.demand_miss_rate::cpu0.data        0.742562                       # miss rate for demand accesses
system.l2.demand_miss_rate::total            0.742562                       # miss rate for demand accesses
system.l2.overall_miss_rate::cpu0.data       0.742562                       # miss rate for overall accesses
system.l2.overall_miss_rate::total           0.742562                       # miss rate for overall accesses
system.l2.ReadExReq_avg_miss_latency::cpu0.data 98721.649485                       # average ReadExReq miss latency
system.l2.ReadExReq_avg_miss_latency::total 98721.649485                       # average ReadExReq miss latency
system.l2.ReadSharedReq_avg_miss_latency::cpu0.data 94871.165837                       # average ReadSharedReq miss latency
system.l2.ReadSharedReq_avg_miss_latency::total 94871.165837                       # average ReadSharedReq miss latency
system.l2.demand_avg_miss_latency::cpu0.data 94875.069238                       # average overall miss latency
system.l2.demand_avg_miss_latency::total 94875.069238                       # average overall miss latency
system.l2.overall_avg_miss_latency::cpu0.data 94875.069238                       # average overall miss latency
system.l2.overall_avg_miss_latency::total 94875.069238                       # average overall miss latency
system.l2.blocked_cycles::no_mshrs                  0                       # number of cycles access was blocked
system.l2.blocked_cycles::no_targets                0                       # number of cycles access was blocked
system.l2.blocked::no_mshrs                         0                       # number of cycles access was blocked
system.l2.blocked::no_targets                       0                       # number of cycles access was blocked
system.l2.avg_blocked_cycles::no_mshrs            nan                       # average number of cycles each access was blocked
system.l2.avg_blocked_cycles::no_targets          nan                       # average number of cycles each access was blocked
system.l2.writebacks::writebacks                  274                       # number of writebacks
system.l2.writebacks::total                       274                       # number of writebacks
system.l2.ReadExReq_mshr_misses::cpu0.data          194                       # number of ReadExReq MSHR misses
system.l2.ReadExReq_mshr_misses::total            194                       # number of ReadExReq MSHR misses
system.l2.ReadSharedReq_mshr_misses::cpu0.data       191176                       # number of ReadSharedReq MSHR misses
system.l2.ReadSharedReq_mshr_misses::total       191176                       # number of ReadSharedReq MSHR misses
system.l2.demand_mshr_misses::cpu0.data        191370                       # number of demand (read+write) MSHR misses
system.l2.demand_mshr_misses::total            191370                       # number of demand (read+write) MSHR misses
system.l2.overall_mshr_misses::cpu0.data       191370                       # number of overall MSHR misses
system.l2.overall_mshr_misses::total           191370                       # number of overall MSHR misses
system.l2.ReadExReq_mshr_miss_latency::cpu0.data     17212000                       # number of ReadExReq MSHR miss cycles
system.l2.ReadExReq_mshr_miss_latency::total     17212000                       # number of ReadExReq MSHR miss cycles
system.l2.ReadSharedReq_mshr_miss_latency::cpu0.data  16225350000                       # number of ReadSharedReq MSHR miss cycles
system.l2.ReadSharedReq_mshr_miss_latency::total  16225350000                       # number of ReadSharedReq MSHR miss cycles
system.l2.demand_mshr_miss_latency::cpu0.data  16242562000                       # number of demand (read+write) MSHR miss cycles
system.l2.demand_mshr_miss_latency::total  16242562000                       # number of demand (read+write) MSHR miss cycles
system.l2.overall_mshr_miss_latency::cpu0.data  16242562000                       # number of overall MSHR miss cycles
system.l2.overall_mshr_miss_latency::total  16242562000                       # number of overall MSHR miss cycles
system.l2.ReadExReq_mshr_miss_rate::cpu0.data     0.228504                       # mshr miss rate for ReadExReq accesses
system.l2.ReadExReq_mshr_miss_rate::total     0.228504                       # mshr miss rate for ReadExReq accesses
system.l2.ReadSharedReq_mshr_miss_rate::cpu0.data     0.744261                       # mshr miss rate for ReadSharedReq accesses
system.l2.ReadSharedReq_mshr_miss_rate::total     0.744261                       # mshr miss rate for ReadSharedReq accesses
system.l2.demand_mshr_miss_rate::cpu0.data     0.742562                       # mshr miss rate for demand accesses
system.l2.demand_mshr_miss_rate::total       0.742562                       # mshr miss rate for demand accesses
system.l2.overall_mshr_miss_rate::cpu0.data     0.742562                       # mshr miss rate for overall accesses
system.l2.overall_mshr_miss_rate::total      0.742562                       # mshr miss rate for overall accesses
system.l2.ReadExReq_avg_mshr_miss_latency::cpu0.data 88721.649485                       # average ReadExReq mshr miss latency
system.l2.ReadExReq_avg_mshr_miss_latency::total 88721.649485                       # average ReadExReq mshr miss latency
system.l2.ReadSharedReq_avg_mshr_miss_latency::cpu0.data 84871.270452                       # average ReadSharedReq mshr miss latency
system.l2.ReadSharedReq_avg_mshr_miss_latency::total 84871.270452                       # average ReadSharedReq mshr miss latency
system.l2.demand_avg_mshr_miss_latency::cpu0.data 84875.173747                       # average overall mshr miss latency
system.l2.demand_avg_mshr_miss_latency::total 84875.173747                       # average overall mshr miss latency
system.l2.overall_avg_mshr_miss_latency::cpu0.data 84875.173747                       # average overall mshr miss latency
system.l2.overall_avg_mshr_miss_latency::total 84875.173747                       # average overall mshr miss latency
system.membus.snoop_filter.tot_requests        382736                       # Total number of requests made to the snoop filter.
system.membus.snoop_filter.hit_single_requests       191368                       # Number of requests hitting in the snoop filter with a single holder of the requested data.
system.membus.snoop_filter.hit_multi_requests            0                       # Number of requests hitting in the snoop filter with multiple (>1) holders of the requested data.
system.membus.snoop_filter.tot_snoops               0                       # Total number of snoops made to the snoop filter.
system.membus.snoop_filter.hit_single_snoops            0                       # Number of snoops hitting in the snoop filter with a single holder of the requested data.
system.membus.snoop_filter.hit_multi_snoops            0                       # Number of snoops hitting in the snoop filter with multiple (>1) holders of the requested data.
system.membus.pwrStateResidencyTicks::UNDEFINED  15267344125                       # Cumulative time (in ticks) in various power states
system.membus.trans_dist::ReadResp             191174                       # Transaction distribution
system.membus.trans_dist::WritebackDirty          274                       # Transaction distribution
system.membus.trans_dist::CleanEvict           191092                       # Transaction distribution
system.membus.trans_dist::ReadExReq               194                       # Transaction distribution
system.membus.trans_dist::ReadExResp              194                       # Transaction distribution
system.membus.trans_dist::ReadSharedReq        191176                       # Transaction distribution
system.membus.pkt_count_system.l2.mem_side::system.mem_ctrls.port       574104                       # Packet count per connected master and slave (bytes)
system.membus.pkt_count_system.l2.mem_side::total       574104                       # Packet count per connected master and slave (bytes)
system.membus.pkt_count::total                 574104                       # Packet count per connected master and slave (bytes)
system.membus.pkt_size_system.l2.mem_side::system.mem_ctrls.port     12265088                       # Cumulative packet size per connected master and slave (bytes)
system.membus.pkt_size_system.l2.mem_side::total     12265088                       # Cumulative packet size per connected master and slave (bytes)
system.membus.pkt_size::total                12265088                       # Cumulative packet size per connected master and slave (bytes)
system.membus.snoops                                0                       # Total snoops (count)
system.membus.snoopTraffic                          0                       # Total snoop traffic (bytes)
system.membus.snoop_fanout::samples            191370                       # Request fanout histogram
system.membus.snoop_fanout::mean                    0                       # Request fanout histogram
system.membus.snoop_fanout::stdev                   0                       # Request fanout histogram
system.membus.snoop_fanout::underflows              0      0.00%      0.00% # Request fanout histogram
system.membus.snoop_fanout::0                  191370    100.00%    100.00% # Request fanout histogram
system.membus.snoop_fanout::1                       0      0.00%    100.00% # Request fanout histogram
system.membus.snoop_fanout::overflows               0      0.00%    100.00% # Request fanout histogram
system.membus.snoop_fanout::min_value               0                       # Request fanout histogram
system.membus.snoop_fanout::max_value               0                       # Request fanout histogram
system.membus.snoop_fanout::total              191370                       # Request fanout histogram
system.membus.reqLayer8.occupancy           450762500                       # Layer occupancy (ticks)
system.membus.reqLayer8.utilization               3.0                       # Layer utilization (%)
system.membus.respLayer1.occupancy         1035431500                       # Layer occupancy (ticks)
system.membus.respLayer1.utilization              6.8                       # Layer utilization (%)
system.tol2bus.snoop_filter.tot_requests       515431                       # Total number of requests made to the snoop filter.
system.tol2bus.snoop_filter.hit_single_requests       257715                       # Number of requests hitting in the snoop filter with a single holder of the requested data.
system.tol2bus.snoop_filter.hit_multi_requests          258                       # Number of requests hitting in the snoop filter with multiple (>1) holders of the requested data.
system.tol2bus.snoop_filter.tot_snoops              3                       # Total number of snoops made to the snoop filter.
system.tol2bus.snoop_filter.hit_single_snoops            3                       # Number of snoops hitting in the snoop filter with a single holder of the requested data.
system.tol2bus.snoop_filter.hit_multi_snoops            0                       # Number of snoops hitting in the snoop filter with multiple (>1) holders of the requested data.
system.tol2bus.pwrStateResidencyTicks::UNDEFINED  15267344125                       # Cumulative time (in ticks) in various power states
system.tol2bus.trans_dist::ReadResp            256866                       # Transaction distribution
system.tol2bus.trans_dist::WritebackDirty         2486                       # Transaction distribution
system.tol2bus.trans_dist::CleanEvict          446597                       # Transaction distribution
system.tol2bus.trans_dist::ReadExReq              849                       # Transaction distribution
system.tol2bus.trans_dist::ReadExResp             849                       # Transaction distribution
system.tol2bus.trans_dist::ReadSharedReq       256867                       # Transaction distribution
system.tol2bus.pkt_count_system.cpu0.dcache.mem_side::system.l2.cpu_side       773146                       # Packet count per connected master and slave (bytes)
system.tol2bus.pkt_count::total                773146                       # Packet count per connected master and slave (bytes)
system.tol2bus.pkt_size_system.cpu0.dcache.mem_side::system.l2.cpu_side     16635328                       # Cumulative packet size per connected master and slave (bytes)
system.tol2bus.pkt_size::total               16635328                       # Cumulative packet size per connected master and slave (bytes)
system.tol2bus.snoops                          191368                       # Total snoops (count)
system.tol2bus.snoopTraffic                     17536                       # Total snoop traffic (bytes)
system.tol2bus.snoop_fanout::samples           449084                       # Request fanout histogram
system.tol2bus.snoop_fanout::mean            0.000581                       # Request fanout histogram
system.tol2bus.snoop_fanout::stdev           0.024101                       # Request fanout histogram
system.tol2bus.snoop_fanout::underflows             0      0.00%      0.00% # Request fanout histogram
system.tol2bus.snoop_fanout::0                 448823     99.94%     99.94% # Request fanout histogram
system.tol2bus.snoop_fanout::1                    261      0.06%    100.00% # Request fanout histogram
system.tol2bus.snoop_fanout::2                      0      0.00%    100.00% # Request fanout histogram
system.tol2bus.snoop_fanout::3                      0      0.00%    100.00% # Request fanout histogram
system.tol2bus.snoop_fanout::4                      0      0.00%    100.00% # Request fanout histogram
system.tol2bus.snoop_fanout::5                      0      0.00%    100.00% # Request fanout histogram
system.tol2bus.snoop_fanout::6                      0      0.00%    100.00% # Request fanout histogram
system.tol2bus.snoop_fanout::7                      0      0.00%    100.00% # Request fanout histogram
system.tol2bus.snoop_fanout::8                      0      0.00%    100.00% # Request fanout histogram
system.tol2bus.snoop_fanout::9                      0      0.00%    100.00% # Request fanout histogram
system.tol2bus.snoop_fanout::10                     0      0.00%    100.00% # Request fanout histogram
system.tol2bus.snoop_fanout::11                     0      0.00%    100.00% # Request fanout histogram
system.tol2bus.snoop_fanout::12                     0      0.00%    100.00% # Request fanout histogram
system.tol2bus.snoop_fanout::13                     0      0.00%    100.00% # Request fanout histogram
system.tol2bus.snoop_fanout::14                     0      0.00%    100.00% # Request fanout histogram
system.tol2bus.snoop_fanout::15                     0      0.00%    100.00% # Request fanout histogram
system.tol2bus.snoop_fanout::16                     0      0.00%    100.00% # Request fanout histogram
system.tol2bus.snoop_fanout::overflows              0      0.00%    100.00% # Request fanout histogram
system.tol2bus.snoop_fanout::min_value              0                       # Request fanout histogram
system.tol2bus.snoop_fanout::max_value              1                       # Request fanout histogram
system.tol2bus.snoop_fanout::total             449084                       # Request fanout histogram
system.tol2bus.reqLayer0.occupancy          259927500                       # Layer occupancy (ticks)
system.tol2bus.reqLayer0.utilization              1.7                       # Layer utilization (%)
system.tol2bus.respLayer1.occupancy         386572500                       # Layer occupancy (ticks)
system.tol2bus.respLayer1.utilization             2.5                       # Layer utilization (%)

---------- End Simulation Statistics   ----------
