
---------- Begin Simulation Statistics ----------
sim_seconds                                  0.015267                       # Number of seconds simulated
sim_ticks                                 15267344125                       # Number of ticks simulated
final_tick                               4931352152375                       # Number of ticks from beginning of simulation (restored from checkpoints and never reset)
sim_freq                                 1000000000000                       # Frequency of simulated ticks
host_inst_rate                              122158255                       # Simulator instruction rate (inst/s)
host_op_rate                                227072416                       # Simulator op (including micro ops) rate (op/s)
host_tick_rate                              320741194                       # Simulator tick rate (ticks/s)
host_mem_usage                                2332684                       # Number of bytes of host memory used
host_seconds                                    47.60                       # Real time elapsed on the host
sim_insts                                  5814753897                       # Number of instructions simulated
sim_ops                                   10808688636                       # Number of ops (including micro ops) simulated
system.voltage_domain.voltage                       1                       # Voltage in Volts
system.clk_domain.clock                          1000                       # Clock period in ticks
system.mem_ctrls.pwrStateResidencyTicks::UNDEFINED  15267344125                       # Cumulative time (in ticks) in various power states
system.mem_ctrls.bytes_read::cpu0.data       11530752                       # Number of bytes read from this memory
system.mem_ctrls.bytes_read::total           11530752                       # Number of bytes read from this memory
system.mem_ctrls.bytes_written::writebacks        26304                       # Number of bytes written to this memory
system.mem_ctrls.bytes_written::total           26304                       # Number of bytes written to this memory
system.mem_ctrls.num_reads::cpu0.data          180168                       # Number of read requests responded to by this memory
system.mem_ctrls.num_reads::total              180168                       # Number of read requests responded to by this memory
system.mem_ctrls.num_writes::writebacks           411                       # Number of write requests responded to by this memory
system.mem_ctrls.num_writes::total                411                       # Number of write requests responded to by this memory
system.mem_ctrls.bw_read::cpu0.data         755255918                       # Total read bandwidth from this memory (bytes/s)
system.mem_ctrls.bw_read::total             755255918                       # Total read bandwidth from this memory (bytes/s)
system.mem_ctrls.bw_write::writebacks         1722893                       # Write bandwidth from this memory (bytes/s)
system.mem_ctrls.bw_write::total              1722893                       # Write bandwidth from this memory (bytes/s)
system.mem_ctrls.bw_total::writebacks         1722893                       # Total bandwidth to/from this memory (bytes/s)
system.mem_ctrls.bw_total::cpu0.data        755255918                       # Total bandwidth to/from this memory (bytes/s)
system.mem_ctrls.bw_total::total            756978811                       # Total bandwidth to/from this memory (bytes/s)
system.mem_ctrls.readReqs                      180168                       # Number of read requests accepted
system.mem_ctrls.writeReqs                        411                       # Number of write requests accepted
system.mem_ctrls.readBursts                    180168                       # Number of DRAM read bursts, including those serviced by the write queue
system.mem_ctrls.writeBursts                      411                       # Number of DRAM write bursts, including those merged in the write queue
system.mem_ctrls.bytesReadDRAM               11525504                       # Total number of bytes read from DRAM
system.mem_ctrls.bytesReadWrQ                    5248                       # Total number of bytes read from write queue
system.mem_ctrls.bytesWritten                   26752                       # Total number of bytes written to DRAM
system.mem_ctrls.bytesReadSys                11530752                       # Total read bytes from the system interface side
system.mem_ctrls.bytesWrittenSys                26304                       # Total written bytes from the system interface side
system.mem_ctrls.servicedByWrQ                     82                       # Number of DRAM read bursts serviced by the write queue
system.mem_ctrls.mergedWrBursts                     0                       # Number of DRAM write bursts merged with an existing one
system.mem_ctrls.neitherReadNorWriteReqs            0                       # Number of requests that are neither read nor write
system.mem_ctrls.perBankRdBursts::0             11343                       # Per bank write bursts
system.mem_ctrls.perBankRdBursts::1             10860                       # Per bank write bursts
system.mem_ctrls.perBankRdBursts::2             11195                       # Per bank write bursts
system.mem_ctrls.perBankRdBursts::3             11005                       # Per bank write bursts
system.mem_ctrls.perBankRdBursts::4             11013                       # Per bank write bursts
system.mem_ctrls.perBankRdBursts::5             11411                       # Per bank write bursts
system.mem_ctrls.perBankRdBursts::6             11071                       # Per bank write bursts
system.mem_ctrls.perBankRdBursts::7             11111                       # Per bank write bursts
system.mem_ctrls.perBankRdBursts::8             11200                       # Per bank write bursts
system.mem_ctrls.perBankRdBursts::9             11085                       # Per bank write bursts
system.mem_ctrls.perBankRdBursts::10            11178                       # Per bank write bursts
system.mem_ctrls.perBankRdBursts::11            11272                       # Per bank write bursts
system.mem_ctrls.perBankRdBursts::12            11712                       # Per bank write bursts
system.mem_ctrls.perBankRdBursts::13            11665                       # Per bank write bursts
system.mem_ctrls.perBankRdBursts::14            11582                       # Per bank write bursts
system.mem_ctrls.perBankRdBursts::15            11383                       # Per bank write bursts
system.mem_ctrls.perBankWrBursts::0                 0                       # Per bank write bursts
system.mem_ctrls.perBankWrBursts::1                 0                       # Per bank write bursts
system.mem_ctrls.perBankWrBursts::2                16                       # Per bank write bursts
system.mem_ctrls.perBankWrBursts::3                14                       # Per bank write bursts
system.mem_ctrls.perBankWrBursts::4                 0                       # Per bank write bursts
system.mem_ctrls.perBankWrBursts::5                 0                       # Per bank write bursts
system.mem_ctrls.perBankWrBursts::6                15                       # Per bank write bursts
system.mem_ctrls.perBankWrBursts::7                 0                       # Per bank write bursts
system.mem_ctrls.perBankWrBursts::8                 0                       # Per bank write bursts
system.mem_ctrls.perBankWrBursts::9                 4                       # Per bank write bursts
system.mem_ctrls.perBankWrBursts::10               42                       # Per bank write bursts
system.mem_ctrls.perBankWrBursts::11              127                       # Per bank write bursts
system.mem_ctrls.perBankWrBursts::12              200                       # Per bank write bursts
system.mem_ctrls.perBankWrBursts::13                0                       # Per bank write bursts
system.mem_ctrls.perBankWrBursts::14                0                       # Per bank write bursts
system.mem_ctrls.perBankWrBursts::15                0                       # Per bank write bursts
system.mem_ctrls.numRdRetry                         0                       # Number of times read queue was full causing retry
system.mem_ctrls.numWrRetry                         0                       # Number of times write queue was full causing retry
system.mem_ctrls.totGap                   15280265000                       # Total gap between requests
system.mem_ctrls.readPktSize::0                     0                       # Read request sizes (log2)
system.mem_ctrls.readPktSize::1                     0                       # Read request sizes (log2)
system.mem_ctrls.readPktSize::2                     0                       # Read request sizes (log2)
system.mem_ctrls.readPktSize::3                     0                       # Read request sizes (log2)
system.mem_ctrls.readPktSize::4                     0                       # Read request sizes (log2)
system.mem_ctrls.readPktSize::5                     0                       # Read request sizes (log2)
system.mem_ctrls.readPktSize::6                180168                       # Read request sizes (log2)
system.mem_ctrls.writePktSize::0                    0                       # Write request sizes (log2)
system.mem_ctrls.writePktSize::1                    0                       # Write request sizes (log2)
system.mem_ctrls.writePktSize::2                    0                       # Write request sizes (log2)
system.mem_ctrls.writePktSize::3                    0                       # Write request sizes (log2)
system.mem_ctrls.writePktSize::4                    0                       # Write request sizes (log2)
system.mem_ctrls.writePktSize::5                    0                       # Write request sizes (log2)
system.mem_ctrls.writePktSize::6                  411                       # Write request sizes (log2)
system.mem_ctrls.rdQLenPdf::0                  138947                       # What read queue length does an incoming req see
system.mem_ctrls.rdQLenPdf::1                   38683                       # What read queue length does an incoming req see
system.mem_ctrls.rdQLenPdf::2                    2401                       # What read queue length does an incoming req see
system.mem_ctrls.rdQLenPdf::3                      55                       # What read queue length does an incoming req see
system.mem_ctrls.rdQLenPdf::4                       0                       # What read queue length does an incoming req see
system.mem_ctrls.rdQLenPdf::5                       0                       # What read queue length does an incoming req see
system.mem_ctrls.rdQLenPdf::6                       0                       # What read queue length does an incoming req see
system.mem_ctrls.rdQLenPdf::7                       0                       # What read queue length does an incoming req see
system.mem_ctrls.rdQLenPdf::8                       0                       # What read queue length does an incoming req see
system.mem_ctrls.rdQLenPdf::9                       0                       # What read queue length does an incoming req see
system.mem_ctrls.rdQLenPdf::10                      0                       # What read queue length does an incoming req see
system.mem_ctrls.rdQLenPdf::11                      0                       # What read queue length does an incoming req see
system.mem_ctrls.rdQLenPdf::12                      0                       # What read queue length does an incoming req see
system.mem_ctrls.rdQLenPdf::13                      0                       # What read queue length does an incoming req see
system.mem_ctrls.rdQLenPdf::14                      0                       # What read queue length does an incoming req see
system.mem_ctrls.rdQLenPdf::15                      0                       # What read queue length does an incoming req see
system.mem_ctrls.rdQLenPdf::16                      0                       # What read queue length does an incoming req see
system.mem_ctrls.rdQLenPdf::17                      0                       # What read queue length does an incoming req see
system.mem_ctrls.rdQLenPdf::18                      0                       # What read queue length does an incoming req see
system.mem_ctrls.rdQLenPdf::19                      0                       # What read queue length does an incoming req see
system.mem_ctrls.rdQLenPdf::20                      0                       # What read queue length does an incoming req see
system.mem_ctrls.rdQLenPdf::21                      0                       # What read queue length does an incoming req see
system.mem_ctrls.rdQLenPdf::22                      0                       # What read queue length does an incoming req see
system.mem_ctrls.rdQLenPdf::23                      0                       # What read queue length does an incoming req see
system.mem_ctrls.rdQLenPdf::24                      0                       # What read queue length does an incoming req see
system.mem_ctrls.rdQLenPdf::25                      0                       # What read queue length does an incoming req see
system.mem_ctrls.rdQLenPdf::26                      0                       # What read queue length does an incoming req see
system.mem_ctrls.rdQLenPdf::27                      0                       # What read queue length does an incoming req see
system.mem_ctrls.rdQLenPdf::28                      0                       # What read queue length does an incoming req see
system.mem_ctrls.rdQLenPdf::29                      0                       # What read queue length does an incoming req see
system.mem_ctrls.rdQLenPdf::30                      0                       # What read queue length does an incoming req see
system.mem_ctrls.rdQLenPdf::31                      0                       # What read queue length does an incoming req see
system.mem_ctrls.wrQLenPdf::0                       0                       # What write queue length does an incoming req see
system.mem_ctrls.wrQLenPdf::1                       0                       # What write queue length does an incoming req see
system.mem_ctrls.wrQLenPdf::2                       0                       # What write queue length does an incoming req see
system.mem_ctrls.wrQLenPdf::3                       0                       # What write queue length does an incoming req see
system.mem_ctrls.wrQLenPdf::4                       0                       # What write queue length does an incoming req see
system.mem_ctrls.wrQLenPdf::5                       0                       # What write queue length does an incoming req see
system.mem_ctrls.wrQLenPdf::6                       0                       # What write queue length does an incoming req see
system.mem_ctrls.wrQLenPdf::7                       0                       # What write queue length does an incoming req see
system.mem_ctrls.wrQLenPdf::8                       0                       # What write queue length does an incoming req see
system.mem_ctrls.wrQLenPdf::9                       0                       # What write queue length does an incoming req see
system.mem_ctrls.wrQLenPdf::10                      0                       # What write queue length does an incoming req see
system.mem_ctrls.wrQLenPdf::11                      0                       # What write queue length does an incoming req see
system.mem_ctrls.wrQLenPdf::12                      0                       # What write queue length does an incoming req see
system.mem_ctrls.wrQLenPdf::13                      0                       # What write queue length does an incoming req see
system.mem_ctrls.wrQLenPdf::14                      0                       # What write queue length does an incoming req see
system.mem_ctrls.wrQLenPdf::15                      1                       # What write queue length does an incoming req see
system.mem_ctrls.wrQLenPdf::16                      1                       # What write queue length does an incoming req see
system.mem_ctrls.wrQLenPdf::17                     26                       # What write queue length does an incoming req see
system.mem_ctrls.wrQLenPdf::18                     26                       # What write queue length does an incoming req see
system.mem_ctrls.wrQLenPdf::19                     26                       # What write queue length does an incoming req see
system.mem_ctrls.wrQLenPdf::20                     26                       # What write queue length does an incoming req see
system.mem_ctrls.wrQLenPdf::21                     26                       # What write queue length does an incoming req see
system.mem_ctrls.wrQLenPdf::22                     25                       # What write queue length does an incoming req see
system.mem_ctrls.wrQLenPdf::23                     25                       # What write queue length does an incoming req see
system.mem_ctrls.wrQLenPdf::24                     25                       # What write queue length does an incoming req see
system.mem_ctrls.wrQLenPdf::25                     25                       # What write queue length does an incoming req see
system.mem_ctrls.wrQLenPdf::26                     25                       # What write queue length does an incoming req see
system.mem_ctrls.wrQLenPdf::27                     25                       # What write queue length does an incoming req see
system.mem_ctrls.wrQLenPdf::28                     25                       # What write queue length does an incoming req see
system.mem_ctrls.wrQLenPdf::29                     26                       # What write queue length does an incoming req see
system.mem_ctrls.wrQLenPdf::30                     26                       # What write queue length does an incoming req see
system.mem_ctrls.wrQLenPdf::31                     26                       # What write queue length does an incoming req see
system.mem_ctrls.wrQLenPdf::32                     26                       # What write queue length does an incoming req see
system.mem_ctrls.wrQLenPdf::33                      0                       # What write queue length does an incoming req see
system.mem_ctrls.wrQLenPdf::34                      0                       # What write queue length does an incoming req see
system.mem_ctrls.wrQLenPdf::35                      0                       # What write queue length does an incoming req see
system.mem_ctrls.wrQLenPdf::36                      0                       # What write queue length does an incoming req see
system.mem_ctrls.wrQLenPdf::37                      0                       # What write queue length does an incoming req see
system.mem_ctrls.wrQLenPdf::38                      0                       # What write queue length does an incoming req see
system.mem_ctrls.wrQLenPdf::39                      0                       # What write queue length does an incoming req see
system.mem_ctrls.wrQLenPdf::40                      0                       # What write queue length does an incoming req see
system.mem_ctrls.wrQLenPdf::41                      0                       # What write queue length does an incoming req see
system.mem_ctrls.wrQLenPdf::42                      0                       # What write queue length does an incoming req see
system.mem_ctrls.wrQLenPdf::43                      0                       # What write queue length does an incoming req see
system.mem_ctrls.wrQLenPdf::44                      0                       # What write queue length does an incoming req see
system.mem_ctrls.wrQLenPdf::45                      0                       # What write queue length does an incoming req see
system.mem_ctrls.wrQLenPdf::46                      0                       # What write queue length does an incoming req see
system.mem_ctrls.wrQLenPdf::47                      0                       # What write queue length does an incoming req see
system.mem_ctrls.wrQLenPdf::48                      0                       # What write queue length does an incoming req see
system.mem_ctrls.wrQLenPdf::49                      0                       # What write queue length does an incoming req see
system.mem_ctrls.wrQLenPdf::50                      0                       # What write queue length does an incoming req see
system.mem_ctrls.wrQLenPdf::51                      0                       # What write queue length does an incoming req see
system.mem_ctrls.wrQLenPdf::52                      0                       # What write queue length does an incoming req see
system.mem_ctrls.wrQLenPdf::53                      0                       # What write queue length does an incoming req see
system.mem_ctrls.wrQLenPdf::54                      0                       # What write queue length does an incoming req see
system.mem_ctrls.wrQLenPdf::55                      0                       # What write queue length does an incoming req see
system.mem_ctrls.wrQLenPdf::56                      0                       # What write queue length does an incoming req see
system.mem_ctrls.wrQLenPdf::57                      0                       # What write queue length does an incoming req see
system.mem_ctrls.wrQLenPdf::58                      0                       # What write queue length does an incoming req see
system.mem_ctrls.wrQLenPdf::59                      0                       # What write queue length does an incoming req see
system.mem_ctrls.wrQLenPdf::60                      0                       # What write queue length does an incoming req see
system.mem_ctrls.wrQLenPdf::61                      0                       # What write queue length does an incoming req see
system.mem_ctrls.wrQLenPdf::62                      0                       # What write queue length does an incoming req see
system.mem_ctrls.wrQLenPdf::63                      0                       # What write queue length does an incoming req see
system.mem_ctrls.bytesPerActivate::samples        96128                       # Bytes accessed per row activation
system.mem_ctrls.bytesPerActivate::mean    120.157124                       # Bytes accessed per row activation
system.mem_ctrls.bytesPerActivate::gmean   103.764404                       # Bytes accessed per row activation
system.mem_ctrls.bytesPerActivate::stdev    72.226215                       # Bytes accessed per row activation
system.mem_ctrls.bytesPerActivate::0-127        46637     48.52%     48.52% # Bytes accessed per row activation
system.mem_ctrls.bytesPerActivate::128-255        40847     42.49%     91.01% # Bytes accessed per row activation
system.mem_ctrls.bytesPerActivate::256-383         7622      7.93%     98.94% # Bytes accessed per row activation
system.mem_ctrls.bytesPerActivate::384-511          899      0.94%     99.87% # Bytes accessed per row activation
system.mem_ctrls.bytesPerActivate::512-639           97      0.10%     99.97% # Bytes accessed per row activation
system.mem_ctrls.bytesPerActivate::640-767            7      0.01%     99.98% # Bytes accessed per row activation
system.mem_ctrls.bytesPerActivate::768-895           10      0.01%     99.99% # Bytes accessed per row activation
system.mem_ctrls.bytesPerActivate::896-1023            4      0.00%     99.99% # Bytes accessed per row activation
system.mem_ctrls.bytesPerActivate::1024-1151            5      0.01%    100.00% # Bytes accessed per row activation
system.mem_ctrls.bytesPerActivate::total        96128                       # Bytes accessed per row activation
system.mem_ctrls.rdPerTurnAround::samples           26                       # Reads before turning the bus around for writes
system.mem_ctrls.rdPerTurnAround::mean    6994.653846                       # Reads before turning the bus around for writes
system.mem_ctrls.rdPerTurnAround::gmean   6775.008821                       # Reads before turning the bus around for writes
system.mem_ctrls.rdPerTurnAround::stdev   1815.823823                       # Reads before turning the bus around for writes
system.mem_ctrls.rdPerTurnAround::4096-4607            1      3.85%      3.85% # Reads before turning the bus around for writes
system.mem_ctrls.rdPerTurnAround::4608-5119            4     15.38%     19.23% # Reads before turning the bus around for writes
system.mem_ctrls.rdPerTurnAround::5120-5631            2      7.69%     26.92% # Reads before turning the bus around for writes
system.mem_ctrls.rdPerTurnAround::5632-6143            2      7.69%     34.62% # Reads before turning the bus around for writes
system.mem_ctrls.rdPerTurnAround::6144-6655            4     15.38%     50.00% # Reads before turning the bus around for writes
system.mem_ctrls.rdPerTurnAround::6656-7167            3     11.54%     61.54% # Reads before turning the bus around for writes
system.mem_ctrls.rdPerTurnAround::7168-7679            1      3.85%     65.38% # Reads before turning the bus around for writes
system.mem_ctrls.rdPerTurnAround::7680-8191            3     11.54%     76.92% # Reads before turning the bus around for writes
system.mem_ctrls.rdPerTurnAround::8704-9215            2      7.69%     84.62% # Reads before turning the bus around for writes
system.mem_ctrls.rdPerTurnAround::9216-9727            3     11.54%     96.15% # Reads before turning the bus around for writes
system.mem_ctrls.rdPerTurnAround::10752-11263            1      3.85%    100.00% # Reads before turning the bus around for writes
system.mem_ctrls.rdPerTurnAround::total            26                       # Reads before turning the bus around for writes
system.mem_ctrls.wrPerTurnAround::samples           26                       # Writes before turning the bus around for reads
system.mem_ctrls.wrPerTurnAround::mean      16.076923                       # Writes before turning the bus around for reads
system.mem_ctrls.wrPerTurnAround::gmean     16.072646                       # Writes before turning the bus around for reads
system.mem_ctrls.wrPerTurnAround::stdev      0.392232                       # Writes before turning the bus around for reads
system.mem_ctrls.wrPerTurnAround::16               25     96.15%     96.15% # Writes before turning the bus around for reads
system.mem_ctrls.wrPerTurnAround::18                1      3.85%    100.00% # Writes before turning the bus around for reads
system.mem_ctrls.wrPerTurnAround::total            26                       # Writes before turning the bus around for reads
system.mem_ctrls.totQLat                   4543001250                       # Total ticks spent queuing
system.mem_ctrls.totMemAccLat              7919613750                       # Total ticks spent from burst creation until serviced by the DRAM
system.mem_ctrls.totBusLat                  900430000                       # Total ticks spent in databus transfers
system.mem_ctrls.avgQLat                     25226.84                       # Average queueing delay per DRAM burst
system.mem_ctrls.avgBusLat                    5000.00                       # Average bus latency per DRAM burst
system.mem_ctrls.avgMemAccLat                43976.84                       # Average memory access latency per DRAM burst
system.mem_ctrls.avgRdBW                       754.91                       # Average DRAM read bandwidth in MiByte/s
system.mem_ctrls.avgWrBW                         1.75                       # Average achieved write bandwidth in MiByte/s
system.mem_ctrls.avgRdBWSys                    755.26                       # Average system read bandwidth in MiByte/s
system.mem_ctrls.avgWrBWSys                      1.72                       # Average system write bandwidth in MiByte/s
system.mem_ctrls.peakBW                      12800.00                       # Theoretical peak bandwidth in MiByte/s
system.mem_ctrls.busUtil                         5.91                       # Data bus utilization in percentage
system.mem_ctrls.busUtilRead                     5.90                       # Data bus utilization in percentage for reads
system.mem_ctrls.busUtilWrite                    0.01                       # Data bus utilization in percentage for writes
system.mem_ctrls.avgRdQLen                       1.29                       # Average read queue length when enqueuing
system.mem_ctrls.avgWrQLen                      25.35                       # Average write queue length when enqueuing
system.mem_ctrls.readRowHits                    84006                       # Number of row buffer hits during reads
system.mem_ctrls.writeRowHits                     354                       # Number of row buffer hits during writes
system.mem_ctrls.readRowHitRate                 46.65                       # Row buffer hit rate for reads
system.mem_ctrls.writeRowHitRate                86.13                       # Row buffer hit rate for writes
system.mem_ctrls.avgGap                      84618.17                       # Average gap between requests
system.mem_ctrls.pageHitRate                    46.74                       # Row buffer hit rate, read and write combined
system.mem_ctrls_0.actEnergy                338842980                       # Energy for activate commands per rank (pJ)
system.mem_ctrls_0.preEnergy                180068955                       # Energy for precharge commands per rank (pJ)
system.mem_ctrls_0.readEnergy               635524260                       # Energy for read commands per rank (pJ)
system.mem_ctrls_0.writeEnergy                 234900                       # Energy for write commands per rank (pJ)
system.mem_ctrls_0.refreshEnergy         1207152960.000000                       # Energy for refresh commands per rank (pJ)
system.mem_ctrls_0.actBackEnergy           1548241980                       # Energy for active background per rank (pJ)
system.mem_ctrls_0.preBackEnergy             24986400                       # Energy for precharge background per rank (pJ)
system.mem_ctrls_0.actPowerDownEnergy      5227015710                       # Energy for active power-down per rank (pJ)
system.mem_ctrls_0.prePowerDownEnergy       128872320                       # Energy for precharge power-down per rank (pJ)
system.mem_ctrls_0.selfRefreshEnergy          4284660                       # Energy for self refresh per rank (pJ)
system.mem_ctrls_0.totalEnergy             9295229445                       # Total energy per rank (pJ)
system.mem_ctrls_0.averagePower            608.830807                       # Core power per rank (mW)
system.mem_ctrls_0.totalIdleTime          11806130500                       # Total Idle time Per DRAM Rank
system.mem_ctrls_0.memoryStateTime::IDLE     10866000                       # Time in different power states
system.mem_ctrls_0.memoryStateTime::REF     510664000                       # Time in different power states
system.mem_ctrls_0.memoryStateTime::SREF      8636000                       # Time in different power states
system.mem_ctrls_0.memoryStateTime::PRE_PDN    335587250                       # Time in different power states
system.mem_ctrls_0.memoryStateTime::ACT    2939682500                       # Time in different power states
system.mem_ctrls_0.memoryStateTime::ACT_PDN  11461908375                       # Time in different power states
system.mem_ctrls_1.actEnergy                347625180                       # Energy for activate commands per rank (pJ)
system.mem_ctrls_1.preEnergy                184736805                       # Energy for precharge commands per rank (pJ)
system.mem_ctrls_1.readEnergy               650289780                       # Energy for read commands per rank (pJ)
system.mem_ctrls_1.writeEnergy                1947060                       # Energy for write commands per rank (pJ)
system.mem_ctrls_1.refreshEnergy         1207152960.000000                       # Energy for refresh commands per rank (pJ)
system.mem_ctrls_1.actBackEnergy           1579536120                       # Energy for active background per rank (pJ)
system.mem_ctrls_1.preBackEnergy             25123680                       # Energy for precharge background per rank (pJ)
system.mem_ctrls_1.actPowerDownEnergy      5190632610                       # Energy for active power-down per rank (pJ)
system.mem_ctrls_1.prePowerDownEnergy       134284800                       # Energy for precharge power-down per rank (pJ)
system.mem_ctrls_1.selfRefreshEnergy     3494460.000000                       # Energy for self refresh per rank (pJ)
system.mem_ctrls_1.totalEnergy             9324823455                       # Total energy per rank (pJ)
system.mem_ctrls_1.averagePower            610.769193                       # Core power per rank (mW)
system.mem_ctrls_1.totalIdleTime          11738337500                       # Total Idle time Per DRAM Rank
system.mem_ctrls_1.memoryStateTime::IDLE     10996000                       # Time in different power states
system.mem_ctrls_1.memoryStateTime::REF     510664000                       # Time in different power states
system.mem_ctrls_1.memoryStateTime::SREF      5356250                       # Time in different power states
system.mem_ctrls_1.memoryStateTime::PRE_PDN    349689750                       # Time in different power states
system.mem_ctrls_1.memoryStateTime::ACT    3006979500                       # Time in different power states
system.mem_ctrls_1.memoryStateTime::ACT_PDN  11383658625                       # Time in different power states
system.pwrStateResidencyTicks::UNDEFINED  15267344125                       # Cumulative time (in ticks) in various power states
system.cpu0.branchPred.lookups                1629776                       # Number of BP lookups
system.cpu0.branchPred.condPredicted          1629776                       # Number of conditional branches predicted
system.cpu0.branchPred.condIncorrect            63545                       # Number of conditional branches incorrect
system.cpu0.branchPred.BTBLookups             1258751                       # Number of BTB lookups
system.cpu0.branchPred.BTBHits                      0                       # Number of BTB hits
system.cpu0.branchPred.BTBCorrect                   0                       # Number of correct BTB predictions (this stat may not work properly.
system.cpu0.branchPred.BTBHitPct             0.000000                       # BTB Hit Percentage
system.cpu0.branchPred.usedRAS                  43968                       # Number of times the RAS was used to get a target.
system.cpu0.branchPred.RASInCorrect              6273                       # Number of incorrect RAS predictions.
system.cpu0.branchPred.indirectLookups        1258751                       # Number of indirect predictor lookups.
system.cpu0.branchPred.indirectHits            703781                       # Number of indirect target hits.
system.cpu0.branchPred.indirectMisses          554970                       # Number of indirect misses.
system.cpu0.branchPredindirectMispredicted        20851                       # Number of mispredicted indirect branches.
system.cpu_voltage_domain.voltage                   1                       # Voltage in Volts
system.cpu_clk_domain.clock                       500                       # Clock period in ticks
system.cpu0.dtb.walker.pwrStateResidencyTicks::UNDEFINED  15267344125                       # Cumulative time (in ticks) in various power states
system.cpu0.dtb.rdAccesses                     818178                       # TLB accesses on read requests
system.cpu0.dtb.wrAccesses                      57713                       # TLB accesses on write requests
system.cpu0.dtb.rdMisses                       184986                       # TLB misses on read requests
system.cpu0.dtb.wrMisses                          911                       # TLB misses on write requests
system.cpu0.apic_clk_domain.clock                8000                       # Clock period in ticks
system.cpu0.interrupts.pwrStateResidencyTicks::UNDEFINED  15267344125                       # Cumulative time (in ticks) in various power states
system.cpu0.itb.walker.pwrStateResidencyTicks::UNDEFINED  15267344125                       # Cumulative time (in ticks) in various power states
system.cpu0.itb.rdAccesses                          0                       # TLB accesses on read requests
system.cpu0.itb.wrAccesses                    1382117                       # TLB accesses on write requests
system.cpu0.itb.rdMisses                            0                       # TLB misses on read requests
system.cpu0.itb.wrMisses                         2509                       # TLB misses on write requests
system.cpu0.workload.numSyscalls                    0                       # Number of system calls
system.cpu0.pwrStateResidencyTicks::ON    15267344125                       # Cumulative time (in ticks) in various power states
system.cpu0.numCycles                        30534688                       # number of cpu cycles simulated
system.cpu0.numWorkItemsStarted                     0                       # number of work items this cpu started
system.cpu0.numWorkItemsCompleted                   0                       # number of work items this cpu completed
system.cpu0.fetch.icacheStallCycles           1412734                       # Number of cycles fetch is stalled on an Icache miss
system.cpu0.fetch.Insts                       4745384                       # Number of instructions fetch has processed
system.cpu0.fetch.Branches                    1629776                       # Number of branches that fetch encountered
system.cpu0.fetch.predictedBranches            747749                       # Number of branches that fetch has predicted taken
system.cpu0.fetch.Cycles                     29015272                       # Number of cycles fetch has run and was not squashing or blocked
system.cpu0.fetch.SquashCycles                 128734                       # Number of cycles fetch has spent squashing
system.cpu0.fetch.TlbCycles                        36                       # Number of cycles fetch has spent waiting for tlb
system.cpu0.fetch.MiscStallCycles                 597                       # Number of cycles fetch has spent waiting on interrupts, or bad addresses, or out of MSHRs
system.cpu0.fetch.PendingTrapStallCycles        20573                       # Number of stall cycles due to pending traps
system.cpu0.fetch.CacheLines                  1379608                       # Number of cache lines fetched
system.cpu0.fetch.IcacheSquashes                 8086                       # Number of outstanding Icache misses that were squashed
system.cpu0.fetch.rateDist::samples          30513579                       # Number of instructions fetched each cycle (Total)
system.cpu0.fetch.rateDist::mean             0.312588                       # Number of instructions fetched each cycle (Total)
system.cpu0.fetch.rateDist::stdev            1.402287                       # Number of instructions fetched each cycle (Total)
system.cpu0.fetch.rateDist::underflows              0      0.00%      0.00% # Number of instructions fetched each cycle (Total)
system.cpu0.fetch.rateDist::0                28648458     93.89%     93.89% # Number of instructions fetched each cycle (Total)
system.cpu0.fetch.rateDist::1                   19240      0.06%     93.95% # Number of instructions fetched each cycle (Total)
system.cpu0.fetch.rateDist::2                  692603      2.27%     96.22% # Number of instructions fetched each cycle (Total)
system.cpu0.fetch.rateDist::3                   28264      0.09%     96.31% # Number of instructions fetched each cycle (Total)
system.cpu0.fetch.rateDist::4                  136198      0.45%     96.76% # Number of instructions fetched each cycle (Total)
system.cpu0.fetch.rateDist::5                   62735      0.21%     96.97% # Number of instructions fetched each cycle (Total)
system.cpu0.fetch.rateDist::6                   97666      0.32%     97.29% # Number of instructions fetched each cycle (Total)
system.cpu0.fetch.rateDist::7                   22829      0.07%     97.36% # Number of instructions fetched each cycle (Total)
system.cpu0.fetch.rateDist::8                  805586      2.64%    100.00% # Number of instructions fetched each cycle (Total)
system.cpu0.fetch.rateDist::overflows               0      0.00%    100.00% # Number of instructions fetched each cycle (Total)
system.cpu0.fetch.rateDist::min_value               0                       # Number of instructions fetched each cycle (Total)
system.cpu0.fetch.rateDist::max_value               8                       # Number of instructions fetched each cycle (Total)
system.cpu0.fetch.rateDist::total            30513579                       # Number of instructions fetched each cycle (Total)
system.cpu0.fetch.branchRate                 0.053375                       # Number of branch fetches per cycle
system.cpu0.fetch.rate                       0.155410                       # Number of inst fetches per cycle
system.cpu0.decode.IdleCycles                  672093                       # Number of cycles decode is idle
system.cpu0.decode.BlockedCycles             28564615                       # Number of cycles decode is blocked
system.cpu0.decode.RunCycles                   857302                       # Number of cycles decode is running
system.cpu0.decode.UnblockCycles               355202                       # Number of cycles decode is unblocking
system.cpu0.decode.SquashCycles                 64367                       # Number of cycles decode is squashing
system.cpu0.decode.DecodedInsts               7966996                       # Number of instructions handled by decode
system.cpu0.rename.SquashCycles                 64367                       # Number of cycles rename is squashing
system.cpu0.rename.IdleCycles                  781262                       # Number of cycles rename is idle
system.cpu0.rename.BlockCycles               27168084                       # Number of cycles rename is blocking
system.cpu0.rename.serializeStallCycles         18875                       # count of cycles rename stalled for serializing inst
system.cpu0.rename.RunCycles                  1021378                       # Number of cycles rename is running
system.cpu0.rename.UnblockCycles              1459613                       # Number of cycles rename is unblocking
system.cpu0.rename.RenamedInsts               7663033                       # Number of instructions processed by rename
system.cpu0.rename.ROBFullEvents                61228                       # Number of times rename has blocked due to ROB full
system.cpu0.rename.IQFullEvents               1211601                       # Number of times rename has blocked due to IQ full
system.cpu0.rename.LQFullEvents                182624                       # Number of times rename has blocked due to LQ full
system.cpu0.rename.SQFullEvents                  3361                       # Number of times rename has blocked due to SQ full
system.cpu0.rename.RenamedOperands            9151305                       # Number of destination operands rename has renamed
system.cpu0.rename.RenameLookups             21358033                       # Number of register rename lookups that rename has made
system.cpu0.rename.int_rename_lookups        10046219                       # Number of integer rename lookups
system.cpu0.rename.fp_rename_lookups            42052                       # Number of floating rename lookups
system.cpu0.rename.CommittedMaps              3671942                       # Number of HB maps that are committed
system.cpu0.rename.UndoneMaps                 5479362                       # Number of HB maps that are undone due to squashing
system.cpu0.rename.serializingInsts               369                       # count of serializing insts renamed
system.cpu0.rename.tempSerializingInsts           429                       # count of temporary serializing insts renamed
system.cpu0.rename.skidInsts                  2267430                       # count of insts added to the skid buffer
system.cpu0.memDep0.insertedLoads             1372232                       # Number of loads inserted to the mem dependence unit.
system.cpu0.memDep0.insertedStores              83888                       # Number of stores inserted to the mem dependence unit.
system.cpu0.memDep0.conflictingLoads             5836                       # Number of conflicting loads.
system.cpu0.memDep0.conflictingStores            5725                       # Number of conflicting stores.
system.cpu0.iq.iqInstsAdded                   7292572                       # Number of instructions added to the IQ (excludes non-spec)
system.cpu0.iq.iqNonSpecInstsAdded               5273                       # Number of non-speculative instructions added to the IQ
system.cpu0.iq.iqInstsIssued                  5366515                       # Number of instructions issued
system.cpu0.iq.iqSquashedInstsIssued             7469                       # Number of squashed instructions issued
system.cpu0.iq.iqSquashedInstsExamined        4243717                       # Number of squashed instructions iterated over during squash; mainly for profiling
system.cpu0.iq.iqSquashedOperandsExamined      8868044                       # Number of squashed operands that are examined and possibly removed from graph
system.cpu0.iq.iqSquashedNonSpecRemoved          5273                       # Number of squashed non-spec instructions that were removed
system.cpu0.iq.issued_per_cycle::samples     30513579                       # Number of insts issued each cycle
system.cpu0.iq.issued_per_cycle::mean        0.175873                       # Number of insts issued each cycle
system.cpu0.iq.issued_per_cycle::stdev       0.754697                       # Number of insts issued each cycle
system.cpu0.iq.issued_per_cycle::underflows            0      0.00%      0.00% # Number of insts issued each cycle
system.cpu0.iq.issued_per_cycle::0           28246217     92.57%     92.57% # Number of insts issued each cycle
system.cpu0.iq.issued_per_cycle::1             933841      3.06%     95.63% # Number of insts issued each cycle
system.cpu0.iq.issued_per_cycle::2             489248      1.60%     97.23% # Number of insts issued each cycle
system.cpu0.iq.issued_per_cycle::3             332533      1.09%     98.32% # Number of insts issued each cycle
system.cpu0.iq.issued_per_cycle::4             295354      0.97%     99.29% # Number of insts issued each cycle
system.cpu0.iq.issued_per_cycle::5              92079      0.30%     99.59% # Number of insts issued each cycle
system.cpu0.iq.issued_per_cycle::6              75897      0.25%     99.84% # Number of insts issued each cycle
system.cpu0.iq.issued_per_cycle::7              27894      0.09%     99.93% # Number of insts issued each cycle
system.cpu0.iq.issued_per_cycle::8              20516      0.07%    100.00% # Number of insts issued each cycle
system.cpu0.iq.issued_per_cycle::overflows            0      0.00%    100.00% # Number of insts issued each cycle
system.cpu0.iq.issued_per_cycle::min_value            0                       # Number of insts issued each cycle
system.cpu0.iq.issued_per_cycle::max_value            8                       # Number of insts issued each cycle
system.cpu0.iq.issued_per_cycle::total       30513579                       # Number of insts issued each cycle
system.cpu0.iq.fu_full::No_OpClass                  0      0.00%      0.00% # attempts to use FU when none available
system.cpu0.iq.fu_full::IntAlu                  12374     68.94%     68.94% # attempts to use FU when none available
system.cpu0.iq.fu_full::IntMult                     0      0.00%     68.94% # attempts to use FU when none available
system.cpu0.iq.fu_full::IntDiv                      0      0.00%     68.94% # attempts to use FU when none available
system.cpu0.iq.fu_full::FloatAdd                 1260      7.02%     75.96% # attempts to use FU when none available
system.cpu0.iq.fu_full::FloatCmp                    0      0.00%     75.96% # attempts to use FU when none available
system.cpu0.iq.fu_full::FloatCvt                    0      0.00%     75.96% # attempts to use FU when none available
system.cpu0.iq.fu_full::FloatMult                   0      0.00%     75.96% # attempts to use FU when none available
system.cpu0.iq.fu_full::FloatMultAcc                0      0.00%     75.96% # attempts to use FU when none available
system.cpu0.iq.fu_full::FloatDiv                    0      0.00%     75.96% # attempts to use FU when none available
system.cpu0.iq.fu_full::FloatMisc                   0      0.00%     75.96% # attempts to use FU when none available
system.cpu0.iq.fu_full::FloatSqrt                   0      0.00%     75.96% # attempts to use FU when none available
system.cpu0.iq.fu_full::SimdAdd                     0      0.00%     75.96% # attempts to use FU when none available
system.cpu0.iq.fu_full::SimdAddAcc                  0      0.00%     75.96% # attempts to use FU when none available
system.cpu0.iq.fu_full::SimdAlu                     0      0.00%     75.96% # attempts to use FU when none available
system.cpu0.iq.fu_full::SimdCmp                     0      0.00%     75.96% # attempts to use FU when none available
system.cpu0.iq.fu_full::SimdCvt                     0      0.00%     75.96% # attempts to use FU when none available
system.cpu0.iq.fu_full::SimdMisc                    0      0.00%     75.96% # attempts to use FU when none available
system.cpu0.iq.fu_full::SimdMult                    0      0.00%     75.96% # attempts to use FU when none available
system.cpu0.iq.fu_full::SimdMultAcc                 0      0.00%     75.96% # attempts to use FU when none available
system.cpu0.iq.fu_full::SimdShift                   0      0.00%     75.96% # attempts to use FU when none available
system.cpu0.iq.fu_full::SimdShiftAcc                0      0.00%     75.96% # attempts to use FU when none available
system.cpu0.iq.fu_full::SimdSqrt                    0      0.00%     75.96% # attempts to use FU when none available
system.cpu0.iq.fu_full::SimdFloatAdd                0      0.00%     75.96% # attempts to use FU when none available
system.cpu0.iq.fu_full::SimdFloatAlu                0      0.00%     75.96% # attempts to use FU when none available
system.cpu0.iq.fu_full::SimdFloatCmp                0      0.00%     75.96% # attempts to use FU when none available
system.cpu0.iq.fu_full::SimdFloatCvt                0      0.00%     75.96% # attempts to use FU when none available
system.cpu0.iq.fu_full::SimdFloatDiv                0      0.00%     75.96% # attempts to use FU when none available
system.cpu0.iq.fu_full::SimdFloatMisc               0      0.00%     75.96% # attempts to use FU when none available
system.cpu0.iq.fu_full::SimdFloatMult               0      0.00%     75.96% # attempts to use FU when none available
system.cpu0.iq.fu_full::SimdFloatMultAcc            0      0.00%     75.96% # attempts to use FU when none available
system.cpu0.iq.fu_full::SimdFloatSqrt               0      0.00%     75.96% # attempts to use FU when none available
system.cpu0.iq.fu_full::MemRead                  3875     21.59%     97.54% # attempts to use FU when none available
system.cpu0.iq.fu_full::MemWrite                  295      1.64%     99.19% # attempts to use FU when none available
system.cpu0.iq.fu_full::FloatMemRead              132      0.74%     99.92% # attempts to use FU when none available
system.cpu0.iq.fu_full::FloatMemWrite              14      0.08%    100.00% # attempts to use FU when none available
system.cpu0.iq.fu_full::IprAccess                   0      0.00%    100.00% # attempts to use FU when none available
system.cpu0.iq.fu_full::InstPrefetch                0      0.00%    100.00% # attempts to use FU when none available
system.cpu0.iq.FU_type_0::No_OpClass            16280      0.30%      0.30% # Type of FU issued
system.cpu0.iq.FU_type_0::IntAlu              4406455     82.11%     82.41% # Type of FU issued
system.cpu0.iq.FU_type_0::IntMult                1259      0.02%     82.44% # Type of FU issued
system.cpu0.iq.FU_type_0::IntDiv                11389      0.21%     82.65% # Type of FU issued
system.cpu0.iq.FU_type_0::FloatAdd              16033      0.30%     82.95% # Type of FU issued
system.cpu0.iq.FU_type_0::FloatCmp                  0      0.00%     82.95% # Type of FU issued
system.cpu0.iq.FU_type_0::FloatCvt                  0      0.00%     82.95% # Type of FU issued
system.cpu0.iq.FU_type_0::FloatMult                 0      0.00%     82.95% # Type of FU issued
system.cpu0.iq.FU_type_0::FloatMultAcc              0      0.00%     82.95% # Type of FU issued
system.cpu0.iq.FU_type_0::FloatDiv                  0      0.00%     82.95% # Type of FU issued
system.cpu0.iq.FU_type_0::FloatMisc                 0      0.00%     82.95% # Type of FU issued
system.cpu0.iq.FU_type_0::FloatSqrt                 0      0.00%     82.95% # Type of FU issued
system.cpu0.iq.FU_type_0::SimdAdd                   0      0.00%     82.95% # Type of FU issued
system.cpu0.iq.FU_type_0::SimdAddAcc                0      0.00%     82.95% # Type of FU issued
system.cpu0.iq.FU_type_0::SimdAlu                   0      0.00%     82.95% # Type of FU issued
system.cpu0.iq.FU_type_0::SimdCmp                   0      0.00%     82.95% # Type of FU issued
system.cpu0.iq.FU_type_0::SimdCvt                   0      0.00%     82.95% # Type of FU issued
system.cpu0.iq.FU_type_0::SimdMisc                  0      0.00%     82.95% # Type of FU issued
system.cpu0.iq.FU_type_0::SimdMult                  0      0.00%     82.95% # Type of FU issued
system.cpu0.iq.FU_type_0::SimdMultAcc               0      0.00%     82.95% # Type of FU issued
system.cpu0.iq.FU_type_0::SimdShift                 0      0.00%     82.95% # Type of FU issued
system.cpu0.iq.FU_type_0::SimdShiftAcc              0      0.00%     82.95% # Type of FU issued
system.cpu0.iq.FU_type_0::SimdSqrt                  0      0.00%     82.95% # Type of FU issued
system.cpu0.iq.FU_type_0::SimdFloatAdd              0      0.00%     82.95% # Type of FU issued
system.cpu0.iq.FU_type_0::SimdFloatAlu              0      0.00%     82.95% # Type of FU issued
system.cpu0.iq.FU_type_0::SimdFloatCmp              0      0.00%     82.95% # Type of FU issued
system.cpu0.iq.FU_type_0::SimdFloatCvt              0      0.00%     82.95% # Type of FU issued
system.cpu0.iq.FU_type_0::SimdFloatDiv              0      0.00%     82.95% # Type of FU issued
system.cpu0.iq.FU_type_0::SimdFloatMisc             0      0.00%     82.95% # Type of FU issued
system.cpu0.iq.FU_type_0::SimdFloatMult             0      0.00%     82.95% # Type of FU issued
system.cpu0.iq.FU_type_0::SimdFloatMultAcc            0      0.00%     82.95% # Type of FU issued
system.cpu0.iq.FU_type_0::SimdFloatSqrt             0      0.00%     82.95% # Type of FU issued
system.cpu0.iq.FU_type_0::MemRead              850189     15.84%     98.79% # Type of FU issued
system.cpu0.iq.FU_type_0::MemWrite              61949      1.15%     99.94% # Type of FU issued
system.cpu0.iq.FU_type_0::FloatMemRead           2921      0.05%    100.00% # Type of FU issued
system.cpu0.iq.FU_type_0::FloatMemWrite            40      0.00%    100.00% # Type of FU issued
system.cpu0.iq.FU_type_0::IprAccess                 0      0.00%    100.00% # Type of FU issued
system.cpu0.iq.FU_type_0::InstPrefetch              0      0.00%    100.00% # Type of FU issued
system.cpu0.iq.FU_type_0::total               5366515                       # Type of FU issued
system.cpu0.iq.rate                          0.175751                       # Inst issue rate
system.cpu0.iq.fu_busy_cnt                      17950                       # FU busy when requested
system.cpu0.iq.fu_busy_rate                  0.003345                       # FU busy rate (busy events/executed inst)
system.cpu0.iq.int_inst_queue_reads          41232398                       # Number of integer instruction queue reads
system.cpu0.iq.int_inst_queue_writes         11506552                       # Number of integer instruction queue writes
system.cpu0.iq.int_inst_queue_wakeup_accesses      5163447                       # Number of integer instruction queue wakeup accesses
system.cpu0.iq.fp_inst_queue_reads              39630                       # Number of floating instruction queue reads
system.cpu0.iq.fp_inst_queue_writes             35012                       # Number of floating instruction queue writes
system.cpu0.iq.fp_inst_queue_wakeup_accesses        17565                       # Number of floating instruction queue wakeup accesses
system.cpu0.iq.vec_inst_queue_reads                 0                       # Number of vector instruction queue reads
system.cpu0.iq.vec_inst_queue_writes                0                       # Number of vector instruction queue writes
system.cpu0.iq.vec_inst_queue_wakeup_accesses            0                       # Number of vector instruction queue wakeup accesses
system.cpu0.iq.int_alu_accesses               5347782                       # Number of integer alu accesses
system.cpu0.iq.fp_alu_accesses                  20403                       # Number of floating point alu accesses
system.cpu0.iq.vec_alu_accesses                     0                       # Number of vector alu accesses
system.cpu0.iew.lsq.thread0.forwLoads            5682                       # Number of loads that had data forwarded from stores
system.cpu0.iew.lsq.thread0.invAddrLoads            0                       # Number of loads ignored due to an invalid address
system.cpu0.iew.lsq.thread0.squashedLoads       801252                       # Number of loads squashed
system.cpu0.iew.lsq.thread0.ignoredResponses          154                       # Number of memory responses ignored because the instruction is squashed
system.cpu0.iew.lsq.thread0.memOrderViolation            2                       # Number of memory ordering violations
system.cpu0.iew.lsq.thread0.squashedStores        51354                       # Number of stores squashed
system.cpu0.iew.lsq.thread0.invAddrSwpfs            0                       # Number of software prefetches ignored due to an invalid address
system.cpu0.iew.lsq.thread0.blockedLoads            0                       # Number of blocked loads due to partial load-store forwarding
system.cpu0.iew.lsq.thread0.rescheduledLoads           37                       # Number of loads that were rescheduled
system.cpu0.iew.lsq.thread0.cacheBlocked         1996                       # Number of times an access to memory failed due to the cache being blocked
system.cpu0.iew.iewIdleCycles                       0                       # Number of cycles IEW is idle
system.cpu0.iew.iewSquashCycles                 64367                       # Number of cycles IEW is squashing
system.cpu0.iew.iewBlockCycles               25277165                       # Number of cycles IEW is blocking
system.cpu0.iew.iewUnblockCycles               276048                       # Number of cycles IEW is unblocking
system.cpu0.iew.iewDispatchedInsts            7297845                       # Number of instructions dispatched to IQ
system.cpu0.iew.iewDispSquashedInsts             3424                       # Number of squashed instructions skipped by dispatch
system.cpu0.iew.iewDispLoadInsts              1372232                       # Number of dispatched load instructions
system.cpu0.iew.iewDispStoreInsts               83888                       # Number of dispatched store instructions
system.cpu0.iew.iewDispNonSpecInsts              1980                       # Number of dispatched non-speculative instructions
system.cpu0.iew.iewIQFullEvents                 17059                       # Number of times the IQ has become full, causing a stall
system.cpu0.iew.iewLSQFullEvents                38439                       # Number of times the LSQ has become full, causing a stall
system.cpu0.iew.memOrderViolationEvents             2                       # Number of memory order violations
system.cpu0.iew.predictedTakenIncorrect         35423                       # Number of branches that were predicted taken incorrectly
system.cpu0.iew.predictedNotTakenIncorrect        36224                       # Number of branches that were predicted not taken incorrectly
system.cpu0.iew.branchMispredicts               71647                       # Number of branch mispredicts detected at execute
system.cpu0.iew.iewExecutedInsts              5277728                       # Number of executed instructions
system.cpu0.iew.iewExecLoadInsts               817914                       # Number of load instructions executed
system.cpu0.iew.iewExecSquashedInsts            88787                       # Number of squashed instructions skipped in execute
system.cpu0.iew.exec_swp                            0                       # number of swp insts executed
system.cpu0.iew.exec_nop                            0                       # number of nop insts executed
system.cpu0.iew.exec_refs                      875614                       # number of memory reference insts executed
system.cpu0.iew.exec_branches                  664461                       # Number of branches executed
system.cpu0.iew.exec_stores                     57700                       # Number of stores executed
system.cpu0.iew.exec_rate                    0.172844                       # Inst execution rate
system.cpu0.iew.wb_sent                       5196655                       # cumulative count of insts sent to commit
system.cpu0.iew.wb_count                      5181012                       # cumulative count of insts written-back
system.cpu0.iew.wb_producers                  3740053                       # num instructions producing a value
system.cpu0.iew.wb_consumers                  6083280                       # num instructions consuming a value
system.cpu0.iew.wb_rate                      0.169676                       # insts written-back per cycle
system.cpu0.iew.wb_fanout                    0.614809                       # average fanout of values written-back
system.cpu0.commit.commitSquashedInsts        4244302                       # The number of squashed insts skipped by commit
system.cpu0.commit.branchMispredicts            64366                       # The number of times a branch was mispredicted
system.cpu0.commit.committed_per_cycle::samples     29916721                       # Number of insts commited each cycle
system.cpu0.commit.committed_per_cycle::mean     0.102088                       # Number of insts commited each cycle
system.cpu0.commit.committed_per_cycle::stdev     0.588398                       # Number of insts commited each cycle
system.cpu0.commit.committed_per_cycle::underflows            0      0.00%      0.00% # Number of insts commited each cycle
system.cpu0.commit.committed_per_cycle::0     28590365     95.57%     95.57% # Number of insts commited each cycle
system.cpu0.commit.committed_per_cycle::1       605342      2.02%     97.59% # Number of insts commited each cycle
system.cpu0.commit.committed_per_cycle::2       155107      0.52%     98.11% # Number of insts commited each cycle
system.cpu0.commit.committed_per_cycle::3       406246      1.36%     99.47% # Number of insts commited each cycle
system.cpu0.commit.committed_per_cycle::4        59093      0.20%     99.66% # Number of insts commited each cycle
system.cpu0.commit.committed_per_cycle::5        35018      0.12%     99.78% # Number of insts commited each cycle
system.cpu0.commit.committed_per_cycle::6         5812      0.02%     99.80% # Number of insts commited each cycle
system.cpu0.commit.committed_per_cycle::7         4404      0.01%     99.82% # Number of insts commited each cycle
system.cpu0.commit.committed_per_cycle::8        55334      0.18%    100.00% # Number of insts commited each cycle
system.cpu0.commit.committed_per_cycle::overflows            0      0.00%    100.00% # Number of insts commited each cycle
system.cpu0.commit.committed_per_cycle::min_value            0                       # Number of insts commited each cycle
system.cpu0.commit.committed_per_cycle::max_value            8                       # Number of insts commited each cycle
system.cpu0.commit.committed_per_cycle::total     29916721                       # Number of insts commited each cycle
system.cpu0.commit.committedInsts             1530180                       # Number of instructions committed
system.cpu0.commit.committedOps               3054128                       # Number of ops (including micro ops) committed
system.cpu0.commit.swp_count                        0                       # Number of s/w prefetches committed
system.cpu0.commit.refs                        603514                       # Number of memory references committed
system.cpu0.commit.loads                       570980                       # Number of loads committed
system.cpu0.commit.membars                          0                       # Number of memory barriers committed
system.cpu0.commit.branches                    548050                       # Number of branches committed
system.cpu0.commit.vec_insts                        0                       # Number of committed Vector instructions.
system.cpu0.commit.fp_insts                     13276                       # Number of committed floating point instructions.
system.cpu0.commit.int_insts                  3040780                       # Number of committed integer instructions.
system.cpu0.commit.function_calls                5750                       # Number of function calls committed.
system.cpu0.commit.op_class_0::No_OpClass         4016      0.13%      0.13% # Class of committed instruction
system.cpu0.commit.op_class_0::IntAlu         2425210     79.41%     79.54% # Class of committed instruction
system.cpu0.commit.op_class_0::IntMult            230      0.01%     79.55% # Class of committed instruction
system.cpu0.commit.op_class_0::IntDiv            9854      0.32%     79.87% # Class of committed instruction
system.cpu0.commit.op_class_0::FloatAdd         11304      0.37%     80.24% # Class of committed instruction
system.cpu0.commit.op_class_0::FloatCmp             0      0.00%     80.24% # Class of committed instruction
system.cpu0.commit.op_class_0::FloatCvt             0      0.00%     80.24% # Class of committed instruction
system.cpu0.commit.op_class_0::FloatMult            0      0.00%     80.24% # Class of committed instruction
system.cpu0.commit.op_class_0::FloatMultAcc            0      0.00%     80.24% # Class of committed instruction
system.cpu0.commit.op_class_0::FloatDiv             0      0.00%     80.24% # Class of committed instruction
system.cpu0.commit.op_class_0::FloatMisc            0      0.00%     80.24% # Class of committed instruction
system.cpu0.commit.op_class_0::FloatSqrt            0      0.00%     80.24% # Class of committed instruction
system.cpu0.commit.op_class_0::SimdAdd              0      0.00%     80.24% # Class of committed instruction
system.cpu0.commit.op_class_0::SimdAddAcc            0      0.00%     80.24% # Class of committed instruction
system.cpu0.commit.op_class_0::SimdAlu              0      0.00%     80.24% # Class of committed instruction
system.cpu0.commit.op_class_0::SimdCmp              0      0.00%     80.24% # Class of committed instruction
system.cpu0.commit.op_class_0::SimdCvt              0      0.00%     80.24% # Class of committed instruction
system.cpu0.commit.op_class_0::SimdMisc             0      0.00%     80.24% # Class of committed instruction
system.cpu0.commit.op_class_0::SimdMult             0      0.00%     80.24% # Class of committed instruction
system.cpu0.commit.op_class_0::SimdMultAcc            0      0.00%     80.24% # Class of committed instruction
system.cpu0.commit.op_class_0::SimdShift            0      0.00%     80.24% # Class of committed instruction
system.cpu0.commit.op_class_0::SimdShiftAcc            0      0.00%     80.24% # Class of committed instruction
system.cpu0.commit.op_class_0::SimdSqrt             0      0.00%     80.24% # Class of committed instruction
system.cpu0.commit.op_class_0::SimdFloatAdd            0      0.00%     80.24% # Class of committed instruction
system.cpu0.commit.op_class_0::SimdFloatAlu            0      0.00%     80.24% # Class of committed instruction
system.cpu0.commit.op_class_0::SimdFloatCmp            0      0.00%     80.24% # Class of committed instruction
system.cpu0.commit.op_class_0::SimdFloatCvt            0      0.00%     80.24% # Class of committed instruction
system.cpu0.commit.op_class_0::SimdFloatDiv            0      0.00%     80.24% # Class of committed instruction
system.cpu0.commit.op_class_0::SimdFloatMisc            0      0.00%     80.24% # Class of committed instruction
system.cpu0.commit.op_class_0::SimdFloatMult            0      0.00%     80.24% # Class of committed instruction
system.cpu0.commit.op_class_0::SimdFloatMultAcc            0      0.00%     80.24% # Class of committed instruction
system.cpu0.commit.op_class_0::SimdFloatSqrt            0      0.00%     80.24% # Class of committed instruction
system.cpu0.commit.op_class_0::MemRead         569008     18.63%     98.87% # Class of committed instruction
system.cpu0.commit.op_class_0::MemWrite         32534      1.07%     99.94% # Class of committed instruction
system.cpu0.commit.op_class_0::FloatMemRead         1972      0.06%    100.00% # Class of committed instruction
system.cpu0.commit.op_class_0::FloatMemWrite            0      0.00%    100.00% # Class of committed instruction
system.cpu0.commit.op_class_0::IprAccess            0      0.00%    100.00% # Class of committed instruction
system.cpu0.commit.op_class_0::InstPrefetch            0      0.00%    100.00% # Class of committed instruction
system.cpu0.commit.op_class_0::total          3054128                       # Class of committed instruction
system.cpu0.commit.bw_lim_events                55334                       # number cycles where commit BW limit reached
system.cpu0.rob.rob_reads                    37159817                       # The number of ROB reads
system.cpu0.rob.rob_writes                   15195388                       # The number of ROB writes
system.cpu0.timesIdled                            181                       # Number of times that the entire CPU went into an idle state and unscheduled itself
system.cpu0.idleCycles                          21109                       # Total number of cycles that the CPU has spent unscheduled due to idling
system.cpu0.committedInsts                    1530180                       # Number of Instructions Simulated
system.cpu0.committedOps                      3054128                       # Number of Ops (including micro ops) Simulated
system.cpu0.cpi                             19.954965                       # CPI: Cycles Per Instruction
system.cpu0.cpi_total                       19.954965                       # CPI: Total CPI of All Threads
system.cpu0.ipc                              0.050113                       # IPC: Instructions Per Cycle
system.cpu0.ipc_total                        0.050113                       # IPC: Total IPC of All Threads
system.cpu0.int_regfile_reads                 5427724                       # number of integer regfile reads
system.cpu0.int_regfile_writes                4466945                       # number of integer regfile writes
system.cpu0.fp_regfile_reads                    31067                       # number of floating regfile reads
system.cpu0.fp_regfile_writes                   15503                       # number of floating regfile writes
system.cpu0.cc_regfile_reads                  3543048                       # number of cc regfile reads
system.cpu0.cc_regfile_writes                 1498131                       # number of cc regfile writes
system.cpu0.misc_regfile_reads                2787573                       # number of misc regfile reads
system.cpu0.dcache.tags.pwrStateResidencyTicks::UNDEFINED  15267344125                       # Cumulative time (in ticks) in various power states
system.cpu0.dcache.tags.replacements           302870                       # number of replacements
system.cpu0.dcache.tags.tagsinuse                1024                       # Cycle average of tags in use
system.cpu0.dcache.tags.total_refs             318359                       # Total number of references to valid blocks.
system.cpu0.dcache.tags.sampled_refs           302870                       # Sample count of references to valid blocks.
system.cpu0.dcache.tags.avg_refs             1.051141                       # Average number of references to valid blocks.
system.cpu0.dcache.tags.warmup_cycle                0                       # Cycle when the warmup percentage was hit.
system.cpu0.dcache.tags.occ_blocks::cpu0.data         1024                       # Average occupied blocks per requestor
system.cpu0.dcache.tags.occ_percent::cpu0.data            1                       # Average percentage of cache occupancy
system.cpu0.dcache.tags.occ_percent::total            1                       # Average percentage of cache occupancy
system.cpu0.dcache.tags.occ_task_id_blocks::1024         1024                       # Occupied blocks per task id
system.cpu0.dcache.tags.age_task_id_blocks_1024::0          170                       # Occupied blocks per task id
system.cpu0.dcache.tags.age_task_id_blocks_1024::1          853                       # Occupied blocks per task id
system.cpu0.dcache.tags.age_task_id_blocks_1024::2            1                       # Occupied blocks per task id
system.cpu0.dcache.tags.occ_task_id_percent::1024            1                       # Percentage of cache occupancy per task id
system.cpu0.dcache.tags.tag_accesses          3662646                       # Number of tag accesses
system.cpu0.dcache.tags.data_accesses         3662646                       # Number of data accesses
system.cpu0.dcache.pwrStateResidencyTicks::UNDEFINED  15267344125                       # Cumulative time (in ticks) in various power states
system.cpu0.dcache.ReadReq_hits::cpu0.data       286332                       # number of ReadReq hits
system.cpu0.dcache.ReadReq_hits::total         286332                       # number of ReadReq hits
system.cpu0.dcache.WriteReq_hits::cpu0.data        31318                       # number of WriteReq hits
system.cpu0.dcache.WriteReq_hits::total         31318                       # number of WriteReq hits
system.cpu0.dcache.demand_hits::cpu0.data       317650                       # number of demand (read+write) hits
system.cpu0.dcache.demand_hits::total          317650                       # number of demand (read+write) hits
system.cpu0.dcache.overall_hits::cpu0.data       317650                       # number of overall hits
system.cpu0.dcache.overall_hits::total         317650                       # number of overall hits
system.cpu0.dcache.ReadReq_misses::cpu0.data       521078                       # number of ReadReq misses
system.cpu0.dcache.ReadReq_misses::total       521078                       # number of ReadReq misses
system.cpu0.dcache.WriteReq_misses::cpu0.data         1216                       # number of WriteReq misses
system.cpu0.dcache.WriteReq_misses::total         1216                       # number of WriteReq misses
system.cpu0.dcache.demand_misses::cpu0.data       522294                       # number of demand (read+write) misses
system.cpu0.dcache.demand_misses::total        522294                       # number of demand (read+write) misses
system.cpu0.dcache.overall_misses::cpu0.data       522294                       # number of overall misses
system.cpu0.dcache.overall_misses::total       522294                       # number of overall misses
system.cpu0.dcache.ReadReq_miss_latency::cpu0.data  33535503000                       # number of ReadReq miss cycles
system.cpu0.dcache.ReadReq_miss_latency::total  33535503000                       # number of ReadReq miss cycles
system.cpu0.dcache.WriteReq_miss_latency::cpu0.data     46240998                       # number of WriteReq miss cycles
system.cpu0.dcache.WriteReq_miss_latency::total     46240998                       # number of WriteReq miss cycles
system.cpu0.dcache.demand_miss_latency::cpu0.data  33581743998                       # number of demand (read+write) miss cycles
system.cpu0.dcache.demand_miss_latency::total  33581743998                       # number of demand (read+write) miss cycles
system.cpu0.dcache.overall_miss_latency::cpu0.data  33581743998                       # number of overall miss cycles
system.cpu0.dcache.overall_miss_latency::total  33581743998                       # number of overall miss cycles
system.cpu0.dcache.ReadReq_accesses::cpu0.data       807410                       # number of ReadReq accesses(hits+misses)
system.cpu0.dcache.ReadReq_accesses::total       807410                       # number of ReadReq accesses(hits+misses)
system.cpu0.dcache.WriteReq_accesses::cpu0.data        32534                       # number of WriteReq accesses(hits+misses)
system.cpu0.dcache.WriteReq_accesses::total        32534                       # number of WriteReq accesses(hits+misses)
system.cpu0.dcache.demand_accesses::cpu0.data       839944                       # number of demand (read+write) accesses
system.cpu0.dcache.demand_accesses::total       839944                       # number of demand (read+write) accesses
system.cpu0.dcache.overall_accesses::cpu0.data       839944                       # number of overall (read+write) accesses
system.cpu0.dcache.overall_accesses::total       839944                       # number of overall (read+write) accesses
system.cpu0.dcache.ReadReq_miss_rate::cpu0.data     0.645370                       # miss rate for ReadReq accesses
system.cpu0.dcache.ReadReq_miss_rate::total     0.645370                       # miss rate for ReadReq accesses
system.cpu0.dcache.WriteReq_miss_rate::cpu0.data     0.037376                       # miss rate for WriteReq accesses
system.cpu0.dcache.WriteReq_miss_rate::total     0.037376                       # miss rate for WriteReq accesses
system.cpu0.dcache.demand_miss_rate::cpu0.data     0.621820                       # miss rate for demand accesses
system.cpu0.dcache.demand_miss_rate::total     0.621820                       # miss rate for demand accesses
system.cpu0.dcache.overall_miss_rate::cpu0.data     0.621820                       # miss rate for overall accesses
system.cpu0.dcache.overall_miss_rate::total     0.621820                       # miss rate for overall accesses
system.cpu0.dcache.ReadReq_avg_miss_latency::cpu0.data 64357.932977                       # average ReadReq miss latency
system.cpu0.dcache.ReadReq_avg_miss_latency::total 64357.932977                       # average ReadReq miss latency
system.cpu0.dcache.WriteReq_avg_miss_latency::cpu0.data 38027.136513                       # average WriteReq miss latency
system.cpu0.dcache.WriteReq_avg_miss_latency::total 38027.136513                       # average WriteReq miss latency
system.cpu0.dcache.demand_avg_miss_latency::cpu0.data 64296.629864                       # average overall miss latency
system.cpu0.dcache.demand_avg_miss_latency::total 64296.629864                       # average overall miss latency
system.cpu0.dcache.overall_avg_miss_latency::cpu0.data 64296.629864                       # average overall miss latency
[...]
system.l2.ReadSharedReq_hits::cpu0.data        121800                       # number of ReadSharedReq hits
system.l2.ReadSharedReq_hits::total            121800                       # number of ReadSharedReq hits
system.l2.demand_hits::cpu0.data               122702                       # number of demand (read+write) hits
system.l2.demand_hits::total                   122702                       # number of demand (read+write) hits
system.l2.overall_hits::cpu0.data              122702                       # number of overall hits
system.l2.overall_hits::total                  122702                       # number of overall hits
system.l2.ReadExReq_misses::cpu0.data             306                       # number of ReadExReq misses
system.l2.ReadExReq_misses::total                 306                       # number of ReadExReq misses
system.l2.ReadSharedReq_misses::cpu0.data       179862                       # number of ReadSharedReq misses
system.l2.ReadSharedReq_misses::total          179862                       # number of ReadSharedReq misses
system.l2.demand_misses::cpu0.data             180168                       # number of demand (read+write) misses
system.l2.demand_misses::total                 180168                       # number of demand (read+write) misses
system.l2.overall_misses::cpu0.data            180168                       # number of overall misses
system.l2.overall_misses::total                180168                       # number of overall misses
system.l2.ReadExReq_miss_latency::cpu0.data     32877500                       # number of ReadExReq miss cycles
system.l2.ReadExReq_miss_latency::total      32877500                       # number of ReadExReq miss cycles
system.l2.ReadSharedReq_miss_latency::cpu0.data  17182167500                       # number of ReadSharedReq miss cycles
system.l2.ReadSharedReq_miss_latency::total  17182167500                       # number of ReadSharedReq miss cycles
system.l2.demand_miss_latency::cpu0.data  17215045000                       # number of demand (read+write) miss cycles
system.l2.demand_miss_latency::total      17215045000                       # number of demand (read+write) miss cycles
system.l2.overall_miss_latency::cpu0.data  17215045000                       # number of overall miss cycles
system.l2.overall_miss_latency::total     17215045000                       # number of overall miss cycles
system.l2.WritebackDirty_accesses::writebacks         3377                       # number of WritebackDirty accesses(hits+misses)
system.l2.WritebackDirty_accesses::total         3377                       # number of WritebackDirty accesses(hits+misses)
system.l2.ReadExReq_accesses::cpu0.data          1208                       # number of ReadExReq accesses(hits+misses)
system.l2.ReadExReq_accesses::total              1208                       # number of ReadExReq accesses(hits+misses)
system.l2.ReadSharedReq_accesses::cpu0.data       301662                       # number of ReadSharedReq accesses(hits+misses)
system.l2.ReadSharedReq_accesses::total        301662                       # number of ReadSharedReq accesses(hits+misses)
system.l2.demand_accesses::cpu0.data           302870                       # number of demand (read+write) accesses
system.l2.demand_accesses::total               302870                       # number of demand (read+write) accesses
system.l2.overall_accesses::cpu0.data          302870                       # number of overall (read+write) accesses
system.l2.overall_accesses::total              302870                       # number of overall (read+write) accesses
system.l2.ReadExReq_miss_rate::cpu0.data     0.253311                       # miss rate for ReadExReq accesses
system.l2.ReadExReq_miss_rate::total         0.253311                       # miss rate for ReadExReq accesses
system.l2.ReadSharedReq_miss_rate::cpu0.data     0.596237                       # miss rate for ReadSharedReq accesses
system.l2.ReadSharedReq_miss_rate::total     0.596237                       # miss rate for ReadSharedReq accesses
system.l2.demand_miss_rate::cpu0.data        0.594869                       # miss rate for demand accesses
system.l2.demand_miss_rate::total            0.594869                       # miss rate for demand accesses
system.l2.overall_miss_rate::cpu0.data       0.594869                       # miss rate for overall accesses
system.l2.overall_miss_rate::total           0.594869                       # miss rate for overall accesses
system.l2.ReadExReq_avg_miss_latency::cpu0.data 107442.810458                       # average ReadExReq miss latency
system.l2.ReadExReq_avg_miss_latency::total 107442.810458                       # average ReadExReq miss latency
system.l2.ReadSharedReq_avg_miss_latency::cpu0.data 95529.725567                       # average ReadSharedReq miss latency
system.l2.ReadSharedReq_avg_miss_latency::total 95529.725567                       # average ReadSharedReq miss latency
system.l2.demand_avg_miss_latency::cpu0.data 95549.958927                       # average overall miss latency
system.l2.demand_avg_miss_latency::total 95549.958927                       # average overall miss latency
system.l2.overall_avg_miss_latency::cpu0.data 95549.958927                       # average overall miss latency
system.l2.overall_avg_miss_latency::total 95549.958927                       # average overall miss latency
system.l2.blocked_cycles::no_mshrs                  0                       # number of cycles access was blocked
system.l2.blocked_cycles::no_targets                0                       # number of cycles access was blocked
system.l2.blocked::no_mshrs                         0                       # number of cycles access was blocked
system.l2.blocked::no_targets                       0                       # number of cycles access was blocked
system.l2.avg_blocked_cycles::no_mshrs            nan                       # average number of cycles each access was blocked
system.l2.avg_blocked_cycles::no_targets          nan                       # average number of cycles each access was blocked
system.l2.writebacks::writebacks                  411                       # number of writebacks
system.l2.writebacks::total                       411                       # number of writebacks
system.l2.ReadExReq_mshr_misses::cpu0.data          306                       # number of ReadExReq MSHR misses
system.l2.ReadExReq_mshr_misses::total            306                       # number of ReadExReq MSHR misses
system.l2.ReadSharedReq_mshr_misses::cpu0.data       179862                       # number of ReadSharedReq MSHR misses
system.l2.ReadSharedReq_mshr_misses::total       179862                       # number of ReadSharedReq MSHR misses
system.l2.demand_mshr_misses::cpu0.data        180168                       # number of demand (read+write) MSHR misses
system.l2.demand_mshr_misses::total            180168                       # number of demand (read+write) MSHR misses
system.l2.overall_mshr_misses::cpu0.data       180168                       # number of overall MSHR misses
system.l2.overall_mshr_misses::total           180168                       # number of overall MSHR misses
system.l2.ReadExReq_mshr_miss_latency::cpu0.data     29817500                       # number of ReadExReq MSHR miss cycles
system.l2.ReadExReq_mshr_miss_latency::total     29817500                       # number of ReadExReq MSHR miss cycles
system.l2.ReadSharedReq_mshr_miss_latency::cpu0.data  15383557500                       # number of ReadSharedReq MSHR miss cycles
system.l2.ReadSharedReq_mshr_miss_latency::total  15383557500                       # number of ReadSharedReq MSHR miss cycles
system.l2.demand_mshr_miss_latency::cpu0.data  15413375000                       # number of demand (read+write) MSHR miss cycles
system.l2.demand_mshr_miss_latency::total  15413375000                       # number of demand (read+write) MSHR miss cycles
system.l2.overall_mshr_miss_latency::cpu0.data  15413375000                       # number of overall MSHR miss cycles
system.l2.overall_mshr_miss_latency::total  15413375000                       # number of overall MSHR miss cycles
system.l2.ReadExReq_mshr_miss_rate::cpu0.data     0.253311                       # mshr miss rate for ReadExReq accesses
system.l2.ReadExReq_mshr_miss_rate::total     0.253311                       # mshr miss rate for ReadExReq accesses
system.l2.ReadSharedReq_mshr_miss_rate::cpu0.data     0.596237                       # mshr miss rate for ReadSharedReq accesses
system.l2.ReadSharedReq_mshr_miss_rate::total     0.596237                       # mshr miss rate for ReadSharedReq accesses
system.l2.demand_mshr_miss_rate::cpu0.data     0.594869                       # mshr miss rate for demand accesses
system.l2.demand_mshr_miss_rate::total       0.594869                       # mshr miss rate for demand accesses
system.l2.overall_mshr_miss_rate::cpu0.data     0.594869                       # mshr miss rate for overall accesses
system.l2.overall_mshr_miss_rate::total      0.594869                       # mshr miss rate for overall accesses
system.l2.ReadExReq_avg_mshr_miss_latency::cpu0.data 97442.810458                       # average ReadExReq mshr miss latency
system.l2.ReadExReq_avg_mshr_miss_latency::total 97442.810458                       # average ReadExReq mshr miss latency
system.l2.ReadSharedReq_avg_mshr_miss_latency::cpu0.data 85529.781166                       # average ReadSharedReq mshr miss latency
system.l2.ReadSharedReq_avg_mshr_miss_latency::total 85529.781166                       # average ReadSharedReq mshr miss latency
system.l2.demand_avg_mshr_miss_latency::cpu0.data 85550.014431                       # average overall mshr miss latency
system.l2.demand_avg_mshr_miss_latency::total 85550.014431                       # average overall mshr miss latency
system.l2.overall_avg_mshr_miss_latency::cpu0.data 85550.014431                       # average overall mshr miss latency
system.l2.overall_avg_mshr_miss_latency::total 85550.014431                       # average overall mshr miss latency
system.membus.snoop_filter.tot_requests        360333                       # Total number of requests made to the snoop filter.
system.membus.snoop_filter.hit_single_requests       180166                       # Number of requests hitting in the snoop filter with a single holder of the requested data.
system.membus.snoop_filter.hit_multi_requests            0                       # Number of requests hitting in the snoop filter with multiple (>1) holders of the requested data.
system.membus.snoop_filter.tot_snoops               0                       # Total number of snoops made to the snoop filter.
system.membus.snoop_filter.hit_single_snoops            0                       # Number of snoops hitting in the snoop filter with a single holder of the requested data.
system.membus.snoop_filter.hit_multi_snoops            0                       # Number of snoops hitting in the snoop filter with multiple (>1) holders of the requested data.
system.membus.pwrStateResidencyTicks::UNDEFINED  15267344125                       # Cumulative time (in ticks) in various power states
system.membus.trans_dist::ReadResp             179861                       # Transaction distribution
system.membus.trans_dist::WritebackDirty          411                       # Transaction distribution
system.membus.trans_dist::CleanEvict           179754                       # Transaction distribution
system.membus.trans_dist::ReadExReq               306                       # Transaction distribution
system.membus.trans_dist::ReadExResp              306                       # Transaction distribution
system.membus.trans_dist::ReadSharedReq        179862                       # Transaction distribution
system.membus.pkt_count_system.l2.mem_side::system.mem_ctrls.port       540500                       # Packet count per connected master and slave (bytes)
system.membus.pkt_count_system.l2.mem_side::total       540500                       # Packet count per connected master and slave (bytes)
system.membus.pkt_count::total                 540500                       # Packet count per connected master and slave (bytes)
system.membus.pkt_size_system.l2.mem_side::system.mem_ctrls.port     11556992                       # Cumulative packet size per connected master and slave (bytes)
system.membus.pkt_size_system.l2.mem_side::total     11556992                       # Cumulative packet size per connected master and slave (bytes)
system.membus.pkt_size::total                11556992                       # Cumulative packet size per connected master and slave (bytes)
system.membus.snoops                                0                       # Total snoops (count)
system.membus.snoopTraffic                          0                       # Total snoop traffic (bytes)
system.membus.snoop_fanout::samples            180168                       # Request fanout histogram
system.membus.snoop_fanout::mean                    0                       # Request fanout histogram
system.membus.snoop_fanout::stdev                   0                       # Request fanout histogram
system.membus.snoop_fanout::underflows              0      0.00%      0.00% # Request fanout histogram
system.membus.snoop_fanout::0                  180168    100.00%    100.00% # Request fanout histogram
system.membus.snoop_fanout::1                       0      0.00%    100.00% # Request fanout histogram
system.membus.snoop_fanout::overflows               0      0.00%    100.00% # Request fanout histogram
system.membus.snoop_fanout::min_value               0                       # Request fanout histogram
system.membus.snoop_fanout::max_value               0                       # Request fanout histogram
system.membus.snoop_fanout::total              180168                       # Request fanout histogram
system.membus.reqLayer8.occupancy           424235500                       # Layer occupancy (ticks)
system.membus.reqLayer8.utilization               2.8                       # Layer utilization (%)
system.membus.respLayer1.occupancy          977086750                       # Layer occupancy (ticks)
system.membus.respLayer1.utilization              6.4                       # Layer utilization (%)
system.tol2bus.snoop_filter.tot_requests       605740                       # Total number of requests made to the snoop filter.
system.tol2bus.snoop_filter.hit_single_requests       302870                       # Number of requests hitting in the snoop filter with a single holder of the requested data.
system.tol2bus.snoop_filter.hit_multi_requests          424                       # Number of requests hitting in the snoop filter with multiple (>1) holders of the requested data.
system.tol2bus.snoop_filter.tot_snoops              2                       # Total number of snoops made to the snoop filter.
system.tol2bus.snoop_filter.hit_single_snoops            2                       # Number of snoops hitting in the snoop filter with a single holder of the requested data.
system.tol2bus.snoop_filter.hit_multi_snoops            0                       # Number of snoops hitting in the snoop filter with multiple (>1) holders of the requested data.
system.tol2bus.pwrStateResidencyTicks::UNDEFINED  15267344125                       # Cumulative time (in ticks) in various power states
system.tol2bus.trans_dist::ReadResp            301662                       # Transaction distribution
system.tol2bus.trans_dist::WritebackDirty         3788                       # Transaction distribution
system.tol2bus.trans_dist::CleanEvict          479249                       # Transaction distribution
system.tol2bus.trans_dist::ReadExReq             1208                       # Transaction distribution
system.tol2bus.trans_dist::ReadExResp            1208                       # Transaction distribution
system.tol2bus.trans_dist::ReadSharedReq       301662                       # Transaction distribution
system.tol2bus.pkt_count_system.cpu0.dcache.mem_side::system.l2.cpu_side       908610                       # Packet count per connected master and slave (bytes)
system.tol2bus.pkt_count::total                908610                       # Packet count per connected master and slave (bytes)
system.tol2bus.pkt_size_system.cpu0.dcache.mem_side::system.l2.cpu_side     19599808                       # Cumulative packet size per connected master and slave (bytes)
system.tol2bus.pkt_size::total               19599808                       # Cumulative packet size per connected master and slave (bytes)
system.tol2bus.snoops                          180167                       # Total snoops (count)
system.tol2bus.snoopTraffic                     26304                       # Total snoop traffic (bytes)
system.tol2bus.snoop_fanout::samples           483037                       # Request fanout histogram
system.tol2bus.snoop_fanout::mean            0.000882                       # Request fanout histogram
system.tol2bus.snoop_fanout::stdev           0.029684                       # Request fanout histogram
system.tol2bus.snoop_fanout::underflows             0      0.00%      0.00% # Request fanout histogram
system.tol2bus.snoop_fanout::0                 482611     99.91%     99.91% # Request fanout histogram
system.tol2bus.snoop_fanout::1                    426      0.09%    100.00% # Request fanout histogram
system.tol2bus.snoop_fanout::2                      0      0.00%    100.00% # Request fanout histogram
system.tol2bus.snoop_fanout::3                      0      0.00%    100.00% # Request fanout histogram
system.tol2bus.snoop_fanout::4                      0      0.00%    100.00% # Request fanout histogram
system.tol2bus.snoop_fanout::5                      0      0.00%    100.00% # Request fanout histogram
system.tol2bus.snoop_fanout::6                      0      0.00%    100.00% # Request fanout histogram
system.tol2bus.snoop_fanout::7                      0      0.00%    100.00% # Request fanout histogram
system.tol2bus.snoop_fanout::8                      0      0.00%    100.00% # Request fanout histogram
system.tol2bus.snoop_fanout::9                      0      0.00%    100.00% # Request fanout histogram
system.tol2bus.snoop_fanout::10                     0      0.00%    100.00% # Request fanout histogram
system.tol2bus.snoop_fanout::11                     0      0.00%    100.00% # Request fanout histogram
system.tol2bus.snoop_fanout::12                     0      0.00%    100.00% # Request fanout histogram
system.tol2bus.snoop_fanout::13                     0      0.00%    100.00% # Request fanout histogram
system.tol2bus.snoop_fanout::14                     0      0.00%    100.00% # Request fanout histogram
system.tol2bus.snoop_fanout::15                     0      0.00%    100.00% # Request fanout histogram
system.tol2bus.snoop_fanout::16                     0      0.00%    100.00% # Request fanout histogram
system.tol2bus.snoop_fanout::overflows              0      0.00%    100.00% # Request fanout histogram
system.tol2bus.snoop_fanout::min_value              0                       # Request fanout histogram
system.tol2bus.snoop_fanout::max_value              1                       # Request fanout histogram
system.tol2bus.snoop_fanout::total             483037                       # Request fanout histogram
system.tol2bus.reqLayer0.occupancy          306247000                       # Layer occupancy (ticks)
system.tol2bus.reqLayer0.utilization              2.0                       # Layer utilization (%)
system.tol2bus.respLayer1.occupancy         454305000                       # Layer occupancy (ticks)
system.tol2bus.respLayer1.utilization             3.0                       # Layer utilization (%)

---------- End Simulation Statistics   ----------
