
---------- Begin Simulation Statistics ----------
sim_seconds                                  0.015267                       # Number of seconds simulated
sim_ticks                                 15267344125                       # Number of ticks simulated
final_tick                               3816836031250                       # Number of ticks from beginning of simulation (restored from checkpoints and never reset)
sim_freq                                 1000000000000                       # Frequency of simulated ticks
host_inst_rate                              108032240                       # Simulator instruction rate (inst/s)
host_op_rate                                200496779                       # Simulator op (including micro ops) rate (op/s)
host_tick_rate                              289679616                       # Simulator tick rate (ticks/s)
host_mem_usage                                2332684                       # Number of bytes of host memory used
host_seconds                                    52.70                       # Real time elapsed on the host
sim_insts                                  5693754212                       # Number of instructions simulated
sim_ops                                   10567026886                       # Number of ops (including micro ops) simulated
system.voltage_domain.voltage                       1                       # Voltage in Volts
system.clk_domain.clock                          1000                       # Clock period in ticks
system.mem_ctrls.pwrStateResidencyTicks::UNDEFINED  15267344125                       # Cumulative time (in ticks) in various power states
system.mem_ctrls.bytes_read::cpu0.inst             64                       # Number of bytes read from this memory
system.mem_ctrls.bytes_read::cpu0.data       11034880                       # Number of bytes read from this memory
system.mem_ctrls.bytes_read::total           11034944                       # Number of bytes read from this memory
system.mem_ctrls.bytes_inst_read::cpu0.inst           64                       # Number of instructions bytes read from this memory
system.mem_ctrls.bytes_inst_read::total            64                       # Number of instructions bytes read from this memory
system.mem_ctrls.bytes_written::writebacks        36672                       # Number of bytes written to this memory
system.mem_ctrls.bytes_written::total           36672                       # Number of bytes written to this memory
system.mem_ctrls.num_reads::cpu0.inst               1                       # Number of read requests responded to by this memory
system.mem_ctrls.num_reads::cpu0.data          172420                       # Number of read requests responded to by this memory
system.mem_ctrls.num_reads::total              172421                       # Number of read requests responded to by this memory
system.mem_ctrls.num_writes::writebacks           573                       # Number of write requests responded to by this memory
system.mem_ctrls.num_writes::total                573                       # Number of write requests responded to by this memory
system.mem_ctrls.bw_read::cpu0.inst              4192                       # Total read bandwidth from this memory (bytes/s)
system.mem_ctrls.bw_read::cpu0.data         722776660                       # Total read bandwidth from this memory (bytes/s)
system.mem_ctrls.bw_read::total             722780852                       # Total read bandwidth from this memory (bytes/s)
system.mem_ctrls.bw_inst_read::cpu0.inst         4192                       # Instruction read bandwidth from this memory (bytes/s)
system.mem_ctrls.bw_inst_read::total             4192                       # Instruction read bandwidth from this memory (bytes/s)
system.mem_ctrls.bw_write::writebacks         2401989                       # Write bandwidth from this memory (bytes/s)
system.mem_ctrls.bw_write::total              2401989                       # Write bandwidth from this memory (bytes/s)
system.mem_ctrls.bw_total::writebacks         2401989                       # Total bandwidth to/from this memory (bytes/s)
system.mem_ctrls.bw_total::cpu0.inst             4192                       # Total bandwidth to/from this memory (bytes/s)
system.mem_ctrls.bw_total::cpu0.data        722776660                       # Total bandwidth to/from this memory (bytes/s)
system.mem_ctrls.bw_total::total            725182842                       # Total bandwidth to/from this memory (bytes/s)
system.mem_ctrls.readReqs                      172422                       # Number of read requests accepted
system.mem_ctrls.writeReqs                        573                       # Number of write requests accepted
system.mem_ctrls.readBursts                    172422                       # Number of DRAM read bursts, including those serviced by the write queue
system.mem_ctrls.writeBursts                      573                       # Number of DRAM write bursts, including those merged in the write queue
system.mem_ctrls.bytesReadDRAM               11029312                       # Total number of bytes read from DRAM
system.mem_ctrls.bytesReadWrQ                    5696                       # Total number of bytes read from write queue
system.mem_ctrls.bytesWritten                   36992                       # Total number of bytes written to DRAM
system.mem_ctrls.bytesReadSys                11035008                       # Total read bytes from the system interface side
system.mem_ctrls.bytesWrittenSys                36672                       # Total written bytes from the system interface side
system.mem_ctrls.servicedByWrQ                     89                       # Number of DRAM read bursts serviced by the write queue
system.mem_ctrls.mergedWrBursts                     0                       # Number of DRAM write bursts merged with an existing one
system.mem_ctrls.neitherReadNorWriteReqs            0                       # Number of requests that are neither read nor write
system.mem_ctrls.perBankRdBursts::0             10713                       # Per bank write bursts
system.mem_ctrls.perBankRdBursts::1             10578                       # Per bank write bursts
system.mem_ctrls.perBankRdBursts::2             10582                       # Per bank write bursts
system.mem_ctrls.perBankRdBursts::3             10418                       # Per bank write bursts
system.mem_ctrls.perBankRdBursts::4             10369                       # Per bank write bursts
system.mem_ctrls.perBankRdBursts::5             10697                       # Per bank write bursts
system.mem_ctrls.perBankRdBursts::6             10560                       # Per bank write bursts
system.mem_ctrls.perBankRdBursts::7             10580                       # Per bank write bursts
system.mem_ctrls.perBankRdBursts::8             10344                       # Per bank write bursts
system.mem_ctrls.perBankRdBursts::9             10334                       # Per bank write bursts
system.mem_ctrls.perBankRdBursts::10            10645                       # Per bank write bursts
system.mem_ctrls.perBankRdBursts::11            10942                       # Per bank write bursts
system.mem_ctrls.perBankRdBursts::12            12065                       # Per bank write bursts
system.mem_ctrls.perBankRdBursts::13            11451                       # Per bank write bursts
system.mem_ctrls.perBankRdBursts::14            11155                       # Per bank write bursts
system.mem_ctrls.perBankRdBursts::15            10900                       # Per bank write bursts
system.mem_ctrls.perBankWrBursts::0                 8                       # Per bank write bursts
system.mem_ctrls.perBankWrBursts::1                 0                       # Per bank write bursts
system.mem_ctrls.perBankWrBursts::2                 0                       # Per bank write bursts
system.mem_ctrls.perBankWrBursts::3                 0                       # Per bank write bursts
system.mem_ctrls.perBankWrBursts::4                 0                       # Per bank write bursts
system.mem_ctrls.perBankWrBursts::5                 0                       # Per bank write bursts
system.mem_ctrls.perBankWrBursts::6                 0                       # Per bank write bursts
system.mem_ctrls.perBankWrBursts::7                 0                       # Per bank write bursts
system.mem_ctrls.perBankWrBursts::8                 0                       # Per bank write bursts
system.mem_ctrls.perBankWrBursts::9                 7                       # Per bank write bursts
system.mem_ctrls.perBankWrBursts::10               15                       # Per bank write bursts
system.mem_ctrls.perBankWrBursts::11              107                       # Per bank write bursts
system.mem_ctrls.perBankWrBursts::12              252                       # Per bank write bursts
system.mem_ctrls.perBankWrBursts::13              114                       # Per bank write bursts
system.mem_ctrls.perBankWrBursts::14               41                       # Per bank write bursts
system.mem_ctrls.perBankWrBursts::15               34                       # Per bank write bursts
system.mem_ctrls.numRdRetry                         0                       # Number of times read queue was full causing retry
system.mem_ctrls.numWrRetry                         0                       # Number of times write queue was full causing retry
system.mem_ctrls.totGap                   15267372500                       # Total gap between requests
system.mem_ctrls.readPktSize::0                     0                       # Read request sizes (log2)
system.mem_ctrls.readPktSize::1                     0                       # Read request sizes (log2)
system.mem_ctrls.readPktSize::2                     0                       # Read request sizes (log2)
system.mem_ctrls.readPktSize::3                     0                       # Read request sizes (log2)
system.mem_ctrls.readPktSize::4                     0                       # Read request sizes (log2)
system.mem_ctrls.readPktSize::5                     0                       # Read request sizes (log2)
system.mem_ctrls.readPktSize::6                172422                       # Read request sizes (log2)
system.mem_ctrls.writePktSize::0                    0                       # Write request sizes (log2)
system.mem_ctrls.writePktSize::1                    0                       # Write request sizes (log2)
system.mem_ctrls.writePktSize::2                    0                       # Write request sizes (log2)
system.mem_ctrls.writePktSize::3                    0                       # Write request sizes (log2)
system.mem_ctrls.writePktSize::4                    0                       # Write request sizes (log2)
system.mem_ctrls.writePktSize::5                    0                       # Write request sizes (log2)
system.mem_ctrls.writePktSize::6                  573                       # Write request sizes (log2)
system.mem_ctrls.rdQLenPdf::0                  132834                       # What read queue length does an incoming req see
system.mem_ctrls.rdQLenPdf::1                   36766                       # What read queue length does an incoming req see
system.mem_ctrls.rdQLenPdf::2                    2649                       # What read queue length does an incoming req see
system.mem_ctrls.rdQLenPdf::3                      84                       # What read queue length does an incoming req see
system.mem_ctrls.rdQLenPdf::4                       0                       # What read queue length does an incoming req see
system.mem_ctrls.rdQLenPdf::5                       0                       # What read queue length does an incoming req see
system.mem_ctrls.rdQLenPdf::6                       0                       # What read queue length does an incoming req see
system.mem_ctrls.rdQLenPdf::7                       0                       # What read queue length does an incoming req see
system.mem_ctrls.rdQLenPdf::8                       0                       # What read queue length does an incoming req see
system.mem_ctrls.rdQLenPdf::9                       0                       # What read queue length does an incoming req see
system.mem_ctrls.rdQLenPdf::10                      0                       # What read queue length does an incoming req see
system.mem_ctrls.rdQLenPdf::11                      0                       # What read queue length does an incoming req see
system.mem_ctrls.rdQLenPdf::12                      0                       # What read queue length does an incoming req see
system.mem_ctrls.rdQLenPdf::13                      0                       # What read queue length does an incoming req see
system.mem_ctrls.rdQLenPdf::14                      0                       # What read queue length does an incoming req see
system.mem_ctrls.rdQLenPdf::15                      0                       # What read queue length does an incoming req see
system.mem_ctrls.rdQLenPdf::16                      0                       # What read queue length does an incoming req see
system.mem_ctrls.rdQLenPdf::17                      0                       # What read queue length does an incoming req see
system.mem_ctrls.rdQLenPdf::18                      0                       # What read queue length does an incoming req see
system.mem_ctrls.rdQLenPdf::19                      0                       # What read queue length does an incoming req see
system.mem_ctrls.rdQLenPdf::20                      0                       # What read queue length does an incoming req see
system.mem_ctrls.rdQLenPdf::21                      0                       # What read queue length does an incoming req see
system.mem_ctrls.rdQLenPdf::22                      0                       # What read queue length does an incoming req see
system.mem_ctrls.rdQLenPdf::23                      0                       # What read queue length does an incoming req see
system.mem_ctrls.rdQLenPdf::24                      0                       # What read queue length does an incoming req see
system.mem_ctrls.rdQLenPdf::25                      0                       # What read queue length does an incoming req see
system.mem_ctrls.rdQLenPdf::26                      0                       # What read queue length does an incoming req see
system.mem_ctrls.rdQLenPdf::27                      0                       # What read queue length does an incoming req see
system.mem_ctrls.rdQLenPdf::28                      0                       # What read queue length does an incoming req see
system.mem_ctrls.rdQLenPdf::29                      0                       # What read queue length does an incoming req see
system.mem_ctrls.rdQLenPdf::30                      0                       # What read queue length does an incoming req see
system.mem_ctrls.rdQLenPdf::31                      0                       # What read queue length does an incoming req see
system.mem_ctrls.wrQLenPdf::0                       0                       # What write queue length does an incoming req see
system.mem_ctrls.wrQLenPdf::1                       0                       # What write queue length does an incoming req see
system.mem_ctrls.wrQLenPdf::2                       0                       # What write queue length does an incoming req see
system.mem_ctrls.wrQLenPdf::3                       0                       # What write queue length does an incoming req see
system.mem_ctrls.wrQLenPdf::4                       0                       # What write queue length does an incoming req see
system.mem_ctrls.wrQLenPdf::5                       0                       # What write queue length does an incoming req see
system.mem_ctrls.wrQLenPdf::6                       0                       # What write queue length does an incoming req see
system.mem_ctrls.wrQLenPdf::7                       0                       # What write queue length does an incoming req see
system.mem_ctrls.wrQLenPdf::8                       0                       # What write queue length does an incoming req see
system.mem_ctrls.wrQLenPdf::9                       0                       # What write queue length does an incoming req see
system.mem_ctrls.wrQLenPdf::10                      0                       # What write queue length does an incoming req see
system.mem_ctrls.wrQLenPdf::11                      0                       # What write queue length does an incoming req see
system.mem_ctrls.wrQLenPdf::12                      0                       # What write queue length does an incoming req see
system.mem_ctrls.wrQLenPdf::13                      0                       # What write queue length does an incoming req see
system.mem_ctrls.wrQLenPdf::14                      0                       # What write queue length does an incoming req see
system.mem_ctrls.wrQLenPdf::15                      1                       # What write queue length does an incoming req see
system.mem_ctrls.wrQLenPdf::16                      1                       # What write queue length does an incoming req see
system.mem_ctrls.wrQLenPdf::17                     36                       # What write queue length does an incoming req see
system.mem_ctrls.wrQLenPdf::18                     36                       # What write queue length does an incoming req see
system.mem_ctrls.wrQLenPdf::19                     36                       # What write queue length does an incoming req see
system.mem_ctrls.wrQLenPdf::20                     36                       # What write queue length does an incoming req see
system.mem_ctrls.wrQLenPdf::21                     35                       # What write queue length does an incoming req see
system.mem_ctrls.wrQLenPdf::22                     35                       # What write queue length does an incoming req see
system.mem_ctrls.wrQLenPdf::23                     35                       # What write queue length does an incoming req see
system.mem_ctrls.wrQLenPdf::24                     35                       # What write queue length does an incoming req see
system.mem_ctrls.wrQLenPdf::25                     35                       # What write queue length does an incoming req see
system.mem_ctrls.wrQLenPdf::26                     36                       # What write queue length does an incoming req see
system.mem_ctrls.wrQLenPdf::27                     36                       # What write queue length does an incoming req see
system.mem_ctrls.wrQLenPdf::28                     36                       # What write queue length does an incoming req see
system.mem_ctrls.wrQLenPdf::29                     36                       # What write queue length does an incoming req see
system.mem_ctrls.wrQLenPdf::30                     36                       # What write queue length does an incoming req see
system.mem_ctrls.wrQLenPdf::31                     36                       # What write queue length does an incoming req see
system.mem_ctrls.wrQLenPdf::32                     36                       # What write queue length does an incoming req see
system.mem_ctrls.wrQLenPdf::33                      0                       # What write queue length does an incoming req see
system.mem_ctrls.wrQLenPdf::34                      0                       # What write queue length does an incoming req see
system.mem_ctrls.wrQLenPdf::35                      0                       # What write queue length does an incoming req see
system.mem_ctrls.wrQLenPdf::36                      0                       # What write queue length does an incoming req see
system.mem_ctrls.wrQLenPdf::37                      0                       # What write queue length does an incoming req see
system.mem_ctrls.wrQLenPdf::38                      0                       # What write queue length does an incoming req see
system.mem_ctrls.wrQLenPdf::39                      0                       # What write queue length does an incoming req see
system.mem_ctrls.wrQLenPdf::40                      0                       # What write queue length does an incoming req see
system.mem_ctrls.wrQLenPdf::41                      0                       # What write queue length does an incoming req see
system.mem_ctrls.wrQLenPdf::42                      0                       # What write queue length does an incoming req see
system.mem_ctrls.wrQLenPdf::43                      0                       # What write queue length does an incoming req see
system.mem_ctrls.wrQLenPdf::44                      0                       # What write queue length does an incoming req see
system.mem_ctrls.wrQLenPdf::45                      0                       # What write queue length does an incoming req see
system.mem_ctrls.wrQLenPdf::46                      0                       # What write queue length does an incoming req see
system.mem_ctrls.wrQLenPdf::47                      0                       # What write queue length does an incoming req see
system.mem_ctrls.wrQLenPdf::48                      0                       # What write queue length does an incoming req see
system.mem_ctrls.wrQLenPdf::49                      0                       # What write queue length does an incoming req see
system.mem_ctrls.wrQLenPdf::50                      0                       # What write queue length does an incoming req see
system.mem_ctrls.wrQLenPdf::51                      0                       # What write queue length does an incoming req see
system.mem_ctrls.wrQLenPdf::52                      0                       # What write queue length does an incoming req see
system.mem_ctrls.wrQLenPdf::53                      0                       # What write queue length does an incoming req see
system.mem_ctrls.wrQLenPdf::54                      0                       # What write queue length does an incoming req see
system.mem_ctrls.wrQLenPdf::55                      0                       # What write queue length does an incoming req see
system.mem_ctrls.wrQLenPdf::56                      0                       # What write queue length does an incoming req see
system.mem_ctrls.wrQLenPdf::57                      0                       # What write queue length does an incoming req see
system.mem_ctrls.wrQLenPdf::58                      0                       # What write queue length does an incoming req see
system.mem_ctrls.wrQLenPdf::59                      0                       # What write queue length does an incoming req see
system.mem_ctrls.wrQLenPdf::60                      0                       # What write queue length does an incoming req see
system.mem_ctrls.wrQLenPdf::61                      0                       # What write queue length does an incoming req see
system.mem_ctrls.wrQLenPdf::62                      0                       # What write queue length does an incoming req see
system.mem_ctrls.wrQLenPdf::63                      0                       # What write queue length does an incoming req see
system.mem_ctrls.bytesPerActivate::samples        95225                       # Bytes accessed per row activation
system.mem_ctrls.bytesPerActivate::mean    116.222925                       # Bytes accessed per row activation
system.mem_ctrls.bytesPerActivate::gmean   100.621620                       # Bytes accessed per row activation
system.mem_ctrls.bytesPerActivate::stdev    70.255483                       # Bytes accessed per row activation
system.mem_ctrls.bytesPerActivate::0-127        48854     51.30%     51.30% # Bytes accessed per row activation
system.mem_ctrls.bytesPerActivate::128-255        38654     40.59%     91.90% # Bytes accessed per row activation
system.mem_ctrls.bytesPerActivate::256-383         6826      7.17%     99.06% # Bytes accessed per row activation
system.mem_ctrls.bytesPerActivate::384-511          789      0.83%     99.89% # Bytes accessed per row activation
system.mem_ctrls.bytesPerActivate::512-639           71      0.07%     99.97% # Bytes accessed per row activation
system.mem_ctrls.bytesPerActivate::640-767           12      0.01%     99.98% # Bytes accessed per row activation
system.mem_ctrls.bytesPerActivate::768-895            6      0.01%     99.99% # Bytes accessed per row activation
system.mem_ctrls.bytesPerActivate::896-1023            6      0.01%     99.99% # Bytes accessed per row activation
system.mem_ctrls.bytesPerActivate::1024-1151            7      0.01%    100.00% # Bytes accessed per row activation
system.mem_ctrls.bytesPerActivate::total        95225                       # Bytes accessed per row activation
system.mem_ctrls.rdPerTurnAround::samples           36                       # Reads before turning the bus around for writes
system.mem_ctrls.rdPerTurnAround::mean           4888                       # Reads before turning the bus around for writes
system.mem_ctrls.rdPerTurnAround::gmean   4749.042678                       # Reads before turning the bus around for writes
system.mem_ctrls.rdPerTurnAround::stdev   1227.106003                       # Reads before turning the bus around for writes
system.mem_ctrls.rdPerTurnAround::3072-3327            1      2.78%      2.78% # Reads before turning the bus around for writes
system.mem_ctrls.rdPerTurnAround::3328-3583            5     13.89%     16.67% # Reads before turning the bus around for writes
system.mem_ctrls.rdPerTurnAround::3584-3839            3      8.33%     25.00% # Reads before turning the bus around for writes
system.mem_ctrls.rdPerTurnAround::3840-4095            1      2.78%     27.78% # Reads before turning the bus around for writes
system.mem_ctrls.rdPerTurnAround::4096-4351            3      8.33%     36.11% # Reads before turning the bus around for writes
system.mem_ctrls.rdPerTurnAround::4352-4607            3      8.33%     44.44% # Reads before turning the bus around for writes
system.mem_ctrls.rdPerTurnAround::4608-4863            5     13.89%     58.33% # Reads before turning the bus around for writes
system.mem_ctrls.rdPerTurnAround::4864-5119            2      5.56%     63.89% # Reads before turning the bus around for writes
system.mem_ctrls.rdPerTurnAround::5120-5375            3      8.33%     72.22% # Reads before turning the bus around for writes
system.mem_ctrls.rdPerTurnAround::5376-5631            2      5.56%     77.78% # Reads before turning the bus around for writes
system.mem_ctrls.rdPerTurnAround::5888-6143            2      5.56%     83.33% # Reads before turning the bus around for writes
system.mem_ctrls.rdPerTurnAround::6144-6399            2      5.56%     88.89% # Reads before turning the bus around for writes
system.mem_ctrls.rdPerTurnAround::6400-6655            1      2.78%     91.67% # Reads before turning the bus around for writes
system.mem_ctrls.rdPerTurnAround::6656-6911            1      2.78%     94.44% # Reads before turning the bus around for writes
system.mem_ctrls.rdPerTurnAround::7424-7679            1      2.78%     97.22% # Reads before turning the bus around for writes
system.mem_ctrls.rdPerTurnAround::7936-8191            1      2.78%    100.00% # Reads before turning the bus around for writes
system.mem_ctrls.rdPerTurnAround::total            36                       # Reads before turning the bus around for writes
system.mem_ctrls.wrPerTurnAround::samples           36                       # Writes before turning the bus around for reads
system.mem_ctrls.wrPerTurnAround::mean      16.055556                       # Writes before turning the bus around for reads
system.mem_ctrls.wrPerTurnAround::gmean     16.052434                       # Writes before turning the bus around for reads
system.mem_ctrls.wrPerTurnAround::stdev      0.333333                       # Writes before turning the bus around for reads
system.mem_ctrls.wrPerTurnAround::16               35     97.22%     97.22% # Writes before turning the bus around for reads
system.mem_ctrls.wrPerTurnAround::18                1      2.78%    100.00% # Writes before turning the bus around for reads
system.mem_ctrls.wrPerTurnAround::total            36                       # Writes before turning the bus around for reads
system.mem_ctrls.totQLat                   4337414750                       # Total ticks spent queuing
system.mem_ctrls.totMemAccLat              7568658500                       # Total ticks spent from burst creation until serviced by the DRAM
system.mem_ctrls.totBusLat                  861665000                       # Total ticks spent in databus transfers
system.mem_ctrls.avgQLat                     25168.80                       # Average queueing delay per DRAM burst
system.mem_ctrls.avgBusLat                    5000.00                       # Average bus latency per DRAM burst
system.mem_ctrls.avgMemAccLat                43918.80                       # Average memory access latency per DRAM burst
system.mem_ctrls.avgRdBW                       722.41                       # Average DRAM read bandwidth in MiByte/s
system.mem_ctrls.avgWrBW                         2.42                       # Average achieved write bandwidth in MiByte/s
system.mem_ctrls.avgRdBWSys                    722.79                       # Average system read bandwidth in MiByte/s
system.mem_ctrls.avgWrBWSys                      2.40                       # Average system write bandwidth in MiByte/s
system.mem_ctrls.peakBW                      12800.00                       # Theoretical peak bandwidth in MiByte/s
system.mem_ctrls.busUtil                         5.66                       # Data bus utilization in percentage
system.mem_ctrls.busUtilRead                     5.64                       # Data bus utilization in percentage for reads
system.mem_ctrls.busUtilWrite                    0.02                       # Data bus utilization in percentage for writes
system.mem_ctrls.avgRdQLen                       1.28                       # Average read queue length when enqueuing
system.mem_ctrls.avgWrQLen                      25.64                       # Average write queue length when enqueuing
system.mem_ctrls.readRowHits                    77204                       # Number of row buffer hits during reads
system.mem_ctrls.writeRowHits                     485                       # Number of row buffer hits during writes
system.mem_ctrls.readRowHitRate                 44.80                       # Row buffer hit rate for reads
system.mem_ctrls.writeRowHitRate                84.64                       # Row buffer hit rate for writes
system.mem_ctrls.avgGap                      88253.26                       # Average gap between requests
system.mem_ctrls.pageHitRate                    44.93                       # Row buffer hit rate, read and write combined
system.mem_ctrls_0.actEnergy                333630780                       # Energy for activate commands per rank (pJ)
system.mem_ctrls_0.preEnergy                177340350                       # Energy for precharge commands per rank (pJ)
system.mem_ctrls_0.readEnergy               603301440                       # Energy for read commands per rank (pJ)
system.mem_ctrls_0.writeEnergy                  41760                       # Energy for write commands per rank (pJ)
system.mem_ctrls_0.refreshEnergy         1205309040.000000                       # Energy for refresh commands per rank (pJ)
system.mem_ctrls_0.actBackEnergy           1493980830                       # Energy for active background per rank (pJ)
system.mem_ctrls_0.preBackEnergy             24727200                       # Energy for precharge background per rank (pJ)
system.mem_ctrls_0.actPowerDownEnergy      5237509980                       # Energy for active power-down per rank (pJ)
system.mem_ctrls_0.prePowerDownEnergy       169308960                       # Energy for precharge power-down per rank (pJ)
system.mem_ctrls_0.selfRefreshEnergy                0                       # Energy for self refresh per rank (pJ)
system.mem_ctrls_0.totalEnergy             9245150340                       # Total energy per rank (pJ)
system.mem_ctrls_0.averagePower            605.550662                       # Core power per rank (mW)
system.mem_ctrls_0.totalIdleTime          11927103375                       # Total Idle time Per DRAM Rank
system.mem_ctrls_0.memoryStateTime::IDLE      9870000                       # Time in different power states
system.mem_ctrls_0.memoryStateTime::REF     509860000                       # Time in different power states
system.mem_ctrls_0.memoryStateTime::SREF            0                       # Time in different power states
system.mem_ctrls_0.memoryStateTime::PRE_PDN    441094000                       # Time in different power states
system.mem_ctrls_0.memoryStateTime::ACT    2820510750                       # Time in different power states
system.mem_ctrls_0.memoryStateTime::ACT_PDN  11486009375                       # Time in different power states
system.mem_ctrls_1.actEnergy                346247160                       # Energy for activate commands per rank (pJ)
system.mem_ctrls_1.preEnergy                184038525                       # Energy for precharge commands per rank (pJ)
system.mem_ctrls_1.readEnergy               627149040                       # Energy for read commands per rank (pJ)
system.mem_ctrls_1.writeEnergy                2975400                       # Energy for write commands per rank (pJ)
system.mem_ctrls_1.refreshEnergy         1207152960.000000                       # Energy for refresh commands per rank (pJ)
system.mem_ctrls_1.actBackEnergy           1547445120                       # Energy for active background per rank (pJ)
system.mem_ctrls_1.preBackEnergy             25213440                       # Energy for precharge background per rank (pJ)
system.mem_ctrls_1.actPowerDownEnergy      5211377190                       # Energy for active power-down per rank (pJ)
system.mem_ctrls_1.prePowerDownEnergy       143504640                       # Energy for precharge power-down per rank (pJ)
system.mem_ctrls_1.selfRefreshEnergy          3647760                       # Energy for self refresh per rank (pJ)
system.mem_ctrls_1.totalEnergy             9298751235                       # Total energy per rank (pJ)
system.mem_ctrls_1.averagePower            609.061482                       # Core power per rank (mW)
system.mem_ctrls_1.totalIdleTime          11808194375                       # Total Idle time Per DRAM Rank
system.mem_ctrls_1.memoryStateTime::IDLE     11028000                       # Time in different power states
system.mem_ctrls_1.memoryStateTime::REF     510664000                       # Time in different power states
system.mem_ctrls_1.memoryStateTime::SREF      5995500                       # Time in different power states
system.mem_ctrls_1.memoryStateTime::PRE_PDN    373879500                       # Time in different power states
system.mem_ctrls_1.memoryStateTime::ACT    2937265250                       # Time in different power states
system.mem_ctrls_1.memoryStateTime::ACT_PDN  11428511875                       # Time in different power states
system.pwrStateResidencyTicks::UNDEFINED  15267344125                       # Cumulative time (in ticks) in various power states
system.cpu0.branchPred.lookups                2151221                       # Number of BP lookups
system.cpu0.branchPred.condPredicted          2151221                       # Number of conditional branches predicted
system.cpu0.branchPred.condIncorrect            94229                       # Number of conditional branches incorrect
system.cpu0.branchPred.BTBLookups             1711297                       # Number of BTB lookups
system.cpu0.branchPred.BTBHits                      0                       # Number of BTB hits
system.cpu0.branchPred.BTBCorrect                   0                       # Number of correct BTB predictions (this stat may not work properly.
system.cpu0.branchPred.BTBHitPct             0.000000                       # BTB Hit Percentage
system.cpu0.branchPred.usedRAS                  64385                       # Number of times the RAS was used to get a target.
system.cpu0.branchPred.RASInCorrect              9651                       # Number of incorrect RAS predictions.
system.cpu0.branchPred.indirectLookups        1711297                       # Number of indirect predictor lookups.
system.cpu0.branchPred.indirectHits            905584                       # Number of indirect target hits.
system.cpu0.branchPred.indirectMisses          805713                       # Number of indirect misses.
system.cpu0.branchPredindirectMispredicted        33825                       # Number of mispredicted indirect branches.
system.cpu_voltage_domain.voltage                   1                       # Voltage in Volts
system.cpu_clk_domain.clock                       500                       # Clock period in ticks
system.cpu0.dtb.walker.pwrStateResidencyTicks::UNDEFINED  15267344125                       # Cumulative time (in ticks) in various power states
system.cpu0.dtb.rdAccesses                    1042304                       # TLB accesses on read requests
system.cpu0.dtb.wrAccesses                      80972                       # TLB accesses on write requests
system.cpu0.dtb.rdMisses                       214351                       # TLB misses on read requests
system.cpu0.dtb.wrMisses                         1351                       # TLB misses on write requests
system.cpu0.apic_clk_domain.clock                8000                       # Clock period in ticks
system.cpu0.interrupts.pwrStateResidencyTicks::UNDEFINED  15267344125                       # Cumulative time (in ticks) in various power states
system.cpu0.itb.walker.pwrStateResidencyTicks::UNDEFINED  15267344125                       # Cumulative time (in ticks) in various power states
system.cpu0.itb.rdAccesses                          0                       # TLB accesses on read requests
system.cpu0.itb.wrAccesses                    1778752                       # TLB accesses on write requests
system.cpu0.itb.rdMisses                            0                       # TLB misses on read requests
system.cpu0.itb.wrMisses                         6940                       # TLB misses on write requests
system.cpu0.workload.numSyscalls                    0                       # Number of system calls
system.cpu0.pwrStateResidencyTicks::ON    15267344125                       # Cumulative time (in ticks) in various power states
system.cpu0.numCycles                        30534688                       # number of cpu cycles simulated
system.cpu0.numWorkItemsStarted                     0                       # number of work items this cpu started
system.cpu0.numWorkItemsCompleted                   0                       # number of work items this cpu completed
system.cpu0.fetch.icacheStallCycles           1820471                       # Number of cycles fetch is stalled on an Icache miss
system.cpu0.fetch.Insts                       6319756                       # Number of instructions fetch has processed
system.cpu0.fetch.Branches                    2151221                       # Number of branches that fetch encountered
system.cpu0.fetch.predictedBranches            969969                       # Number of branches that fetch has predicted taken
system.cpu0.fetch.Cycles                     28504406                       # Number of cycles fetch has run and was not squashing or blocked
system.cpu0.fetch.SquashCycles                 192808                       # Number of cycles fetch has spent squashing
system.cpu0.fetch.TlbCycles                      2160                       # Number of cycles fetch has spent waiting for tlb
system.cpu0.fetch.MiscStallCycles                1571                       # Number of cycles fetch has spent waiting on interrupts, or bad addresses, or out of MSHRs
system.cpu0.fetch.PendingTrapStallCycles        58485                       # Number of stall cycles due to pending traps
system.cpu0.fetch.CacheLines                  1771812                       # Number of cache lines fetched
system.cpu0.fetch.IcacheSquashes                13972                       # Number of outstanding Icache misses that were squashed
system.cpu0.fetch.ItlbSquashes                      5                       # Number of outstanding ITLB misses that were squashed
system.cpu0.fetch.rateDist::samples          30483497                       # Number of instructions fetched each cycle (Total)
system.cpu0.fetch.rateDist::mean             0.417384                       # Number of instructions fetched each cycle (Total)
system.cpu0.fetch.rateDist::stdev            1.616374                       # Number of instructions fetched each cycle (Total)
system.cpu0.fetch.rateDist::underflows              0      0.00%      0.00% # Number of instructions fetched each cycle (Total)
system.cpu0.fetch.rateDist::0                28037349     91.98%     91.98% # Number of instructions fetched each cycle (Total)
system.cpu0.fetch.rateDist::1                   36003      0.12%     92.09% # Number of instructions fetched each cycle (Total)
system.cpu0.fetch.rateDist::2                  866836      2.84%     94.94% # Number of instructions fetched each cycle (Total)
system.cpu0.fetch.rateDist::3                   38594      0.13%     95.06% # Number of instructions fetched each cycle (Total)
system.cpu0.fetch.rateDist::4                  173257      0.57%     95.63% # Number of instructions fetched each cycle (Total)
system.cpu0.fetch.rateDist::5                   82024      0.27%     95.90% # Number of instructions fetched each cycle (Total)
system.cpu0.fetch.rateDist::6                  113845      0.37%     96.27% # Number of instructions fetched each cycle (Total)
system.cpu0.fetch.rateDist::7                   33057      0.11%     96.38% # Number of instructions fetched each cycle (Total)
system.cpu0.fetch.rateDist::8                 1102532      3.62%    100.00% # Number of instructions fetched each cycle (Total)
system.cpu0.fetch.rateDist::overflows               0      0.00%    100.00% # Number of instructions fetched each cycle (Total)
system.cpu0.fetch.rateDist::min_value               0                       # Number of instructions fetched each cycle (Total)
system.cpu0.fetch.rateDist::max_value               8                       # Number of instructions fetched each cycle (Total)
system.cpu0.fetch.rateDist::total            30483497                       # Number of instructions fetched each cycle (Total)
system.cpu0.fetch.branchRate                 0.070452                       # Number of branch fetches per cycle
system.cpu0.fetch.rate                       0.206970                       # Number of inst fetches per cycle
system.cpu0.decode.IdleCycles                  929358                       # Number of cycles decode is idle
system.cpu0.decode.BlockedCycles             27821854                       # Number of cycles decode is blocked
system.cpu0.decode.RunCycles                  1219095                       # Number of cycles decode is running
system.cpu0.decode.UnblockCycles               416786                       # Number of cycles decode is unblocking
system.cpu0.decode.SquashCycles                 96404                       # Number of cycles decode is squashing
system.cpu0.decode.DecodedInsts              10638137                       # Number of instructions handled by decode
system.cpu0.rename.SquashCycles                 96404                       # Number of cycles rename is squashing
system.cpu0.rename.IdleCycles                 1067410                       # Number of cycles rename is idle
system.cpu0.rename.BlockCycles               26291394                       # Number of cycles rename is blocking
system.cpu0.rename.serializeStallCycles         19966                       # count of cycles rename stalled for serializing inst
system.cpu0.rename.RunCycles                  1403250                       # Number of cycles rename is running
system.cpu0.rename.UnblockCycles              1605073                       # Number of cycles rename is unblocking
system.cpu0.rename.RenamedInsts              10202910                       # Number of instructions processed by rename
system.cpu0.rename.ROBFullEvents                62164                       # Number of times rename has blocked due to ROB full
system.cpu0.rename.IQFullEvents               1340413                       # Number of times rename has blocked due to IQ full
system.cpu0.rename.LQFullEvents                197963                       # Number of times rename has blocked due to LQ full
system.cpu0.rename.SQFullEvents                  2553                       # Number of times rename has blocked due to SQ full
system.cpu0.rename.RenamedOperands           12155130                       # Number of destination operands rename has renamed
system.cpu0.rename.RenameLookups             28289267                       # Number of register rename lookups that rename has made
system.cpu0.rename.int_rename_lookups        13463863                       # Number of integer rename lookups
system.cpu0.rename.fp_rename_lookups            61564                       # Number of floating rename lookups
system.cpu0.rename.CommittedMaps              4471065                       # Number of HB maps that are committed
system.cpu0.rename.UndoneMaps                 7684062                       # Number of HB maps that are undone due to squashing
system.cpu0.rename.serializingInsts               388                       # count of serializing insts renamed
system.cpu0.rename.tempSerializingInsts           478                       # count of temporary serializing insts renamed
system.cpu0.rename.skidInsts                  2584898                       # count of insts added to the skid buffer
system.cpu0.memDep0.insertedLoads             1801082                       # Number of loads inserted to the mem dependence unit.
system.cpu0.memDep0.insertedStores             119632                       # Number of stores inserted to the mem dependence unit.
system.cpu0.memDep0.conflictingLoads             7667                       # Number of conflicting loads.
system.cpu0.memDep0.conflictingStores            7001                       # Number of conflicting stores.
system.cpu0.iq.iqInstsAdded                   9641707                       # Number of instructions added to the IQ (excludes non-spec)
system.cpu0.iq.iqNonSpecInstsAdded               7855                       # Number of non-speculative instructions added to the IQ
system.cpu0.iq.iqInstsIssued                  6981856                       # Number of instructions issued
system.cpu0.iq.iqSquashedInstsIssued             9783                       # Number of squashed instructions issued
system.cpu0.iq.iqSquashedInstsExamined        5926507                       # Number of squashed instructions iterated over during squash; mainly for profiling
system.cpu0.iq.iqSquashedOperandsExamined     12264253                       # Number of squashed operands that are examined and possibly removed from graph
system.cpu0.iq.iqSquashedNonSpecRemoved          7855                       # Number of squashed non-spec instructions that were removed
system.cpu0.iq.issued_per_cycle::samples     30483497                       # Number of insts issued each cycle
system.cpu0.iq.issued_per_cycle::mean        0.229037                       # Number of insts issued each cycle
system.cpu0.iq.issued_per_cycle::stdev       0.875453                       # Number of insts issued each cycle
system.cpu0.iq.issued_per_cycle::underflows            0      0.00%      0.00% # Number of insts issued each cycle
system.cpu0.iq.issued_per_cycle::0           27681070     90.81%     90.81% # Number of insts issued each cycle
system.cpu0.iq.issued_per_cycle::1            1085182      3.56%     94.37% # Number of insts issued each cycle
system.cpu0.iq.issued_per_cycle::2             586267      1.92%     96.29% # Number of insts issued each cycle
system.cpu0.iq.issued_per_cycle::3             401266      1.32%     97.61% # Number of insts issued each cycle
system.cpu0.iq.issued_per_cycle::4             411439      1.35%     98.96% # Number of insts issued each cycle
system.cpu0.iq.issued_per_cycle::5             137523      0.45%     99.41% # Number of insts issued each cycle
system.cpu0.iq.issued_per_cycle::6             108450      0.36%     99.76% # Number of insts issued each cycle
system.cpu0.iq.issued_per_cycle::7              42129      0.14%     99.90% # Number of insts issued each cycle
system.cpu0.iq.issued_per_cycle::8              30171      0.10%    100.00% # Number of insts issued each cycle
system.cpu0.iq.issued_per_cycle::overflows            0      0.00%    100.00% # Number of insts issued each cycle
system.cpu0.iq.issued_per_cycle::min_value            0                       # Number of insts issued each cycle
system.cpu0.iq.issued_per_cycle::max_value            8                       # Number of insts issued each cycle
system.cpu0.iq.issued_per_cycle::total       30483497                       # Number of insts issued each cycle
system.cpu0.iq.fu_full::No_OpClass                  0      0.00%      0.00% # attempts to use FU when none available
system.cpu0.iq.fu_full::IntAlu                  17587     71.43%     71.43% # attempts to use FU when none available
system.cpu0.iq.fu_full::IntMult                     0      0.00%     71.43% # attempts to use FU when none available
system.cpu0.iq.fu_full::IntDiv                      0      0.00%     71.43% # attempts to use FU when none available
system.cpu0.iq.fu_full::FloatAdd                 1772      7.20%     78.63% # attempts to use FU when none available
system.cpu0.iq.fu_full::FloatCmp                    0      0.00%     78.63% # attempts to use FU when none available
system.cpu0.iq.fu_full::FloatCvt                    0      0.00%     78.63% # attempts to use FU when none available
system.cpu0.iq.fu_full::FloatMult                   0      0.00%     78.63% # attempts to use FU when none available
system.cpu0.iq.fu_full::FloatMultAcc                0      0.00%     78.63% # attempts to use FU when none available
system.cpu0.iq.fu_full::FloatDiv                    0      0.00%     78.63% # attempts to use FU when none available
system.cpu0.iq.fu_full::FloatMisc                   0      0.00%     78.63% # attempts to use FU when none available
system.cpu0.iq.fu_full::FloatSqrt                   0      0.00%     78.63% # attempts to use FU when none available
system.cpu0.iq.fu_full::SimdAdd                     0      0.00%     78.63% # attempts to use FU when none available
system.cpu0.iq.fu_full::SimdAddAcc                  0      0.00%     78.63% # attempts to use FU when none available
system.cpu0.iq.fu_full::SimdAlu                     0      0.00%     78.63% # attempts to use FU when none available
system.cpu0.iq.fu_full::SimdCmp                     0      0.00%     78.63% # attempts to use FU when none available
system.cpu0.iq.fu_full::SimdCvt                     0      0.00%     78.63% # attempts to use FU when none available
system.cpu0.iq.fu_full::SimdMisc                    0      0.00%     78.63% # attempts to use FU when none available
system.cpu0.iq.fu_full::SimdMult                    0      0.00%     78.63% # attempts to use FU when none available
system.cpu0.iq.fu_full::SimdMultAcc                 0      0.00%     78.63% # attempts to use FU when none available
system.cpu0.iq.fu_full::SimdShift                   0      0.00%     78.63% # attempts to use FU when none available
system.cpu0.iq.fu_full::SimdShiftAcc                0      0.00%     78.63% # attempts to use FU when none available
system.cpu0.iq.fu_full::SimdSqrt                    0      0.00%     78.63% # attempts to use FU when none available
system.cpu0.iq.fu_full::SimdFloatAdd                0      0.00%     78.63% # attempts to use FU when none available
system.cpu0.iq.fu_full::SimdFloatAlu                0      0.00%     78.63% # attempts to use FU when none available
system.cpu0.iq.fu_full::SimdFloatCmp                0      0.00%     78.63% # attempts to use FU when none available
system.cpu0.iq.fu_full::SimdFloatCvt                0      0.00%     78.63% # attempts to use FU when none available
system.cpu0.iq.fu_full::SimdFloatDiv                0      0.00%     78.63% # attempts to use FU when none available
system.cpu0.iq.fu_full::SimdFloatMisc               0      0.00%     78.63% # attempts to use FU when none available
system.cpu0.iq.fu_full::SimdFloatMult               0      0.00%     78.63% # attempts to use FU when none available
system.cpu0.iq.fu_full::SimdFloatMultAcc            0      0.00%     78.63% # attempts to use FU when none available
system.cpu0.iq.fu_full::SimdFloatSqrt               0      0.00%     78.63% # attempts to use FU when none available
system.cpu0.iq.fu_full::MemRead                  4524     18.37%     97.00% # attempts to use FU when none available
system.cpu0.iq.fu_full::MemWrite                  450      1.83%     98.83% # attempts to use FU when none available
system.cpu0.iq.fu_full::FloatMemRead              260      1.06%     99.89% # attempts to use FU when none available
system.cpu0.iq.fu_full::FloatMemWrite              28      0.11%    100.00% # attempts to use FU when none available
system.cpu0.iq.fu_full::IprAccess                   0      0.00%    100.00% # attempts to use FU when none available
system.cpu0.iq.fu_full::InstPrefetch                0      0.00%    100.00% # attempts to use FU when none available
system.cpu0.iq.FU_type_0::No_OpClass            26413      0.38%      0.38% # Type of FU issued
system.cpu0.iq.FU_type_0::IntAlu              5731674     82.09%     82.47% # Type of FU issued
system.cpu0.iq.FU_type_0::IntMult                1813      0.03%     82.50% # Type of FU issued
system.cpu0.iq.FU_type_0::IntDiv                16295      0.23%     82.73% # Type of FU issued
system.cpu0.iq.FU_type_0::FloatAdd              22439      0.32%     83.05% # Type of FU issued
system.cpu0.iq.FU_type_0::FloatCmp                  0      0.00%     83.05% # Type of FU issued
system.cpu0.iq.FU_type_0::FloatCvt                  0      0.00%     83.05% # Type of FU issued
system.cpu0.iq.FU_type_0::FloatMult                 0      0.00%     83.05% # Type of FU issued
system.cpu0.iq.FU_type_0::FloatMultAcc              0      0.00%     83.05% # Type of FU issued
system.cpu0.iq.FU_type_0::FloatDiv                  0      0.00%     83.05% # Type of FU issued
system.cpu0.iq.FU_type_0::FloatMisc                 0      0.00%     83.05% # Type of FU issued
system.cpu0.iq.FU_type_0::FloatSqrt                 0      0.00%     83.05% # Type of FU issued
system.cpu0.iq.FU_type_0::SimdAdd                   0      0.00%     83.05% # Type of FU issued
system.cpu0.iq.FU_type_0::SimdAddAcc                0      0.00%     83.05% # Type of FU issued
system.cpu0.iq.FU_type_0::SimdAlu                   0      0.00%     83.05% # Type of FU issued
system.cpu0.iq.FU_type_0::SimdCmp                   0      0.00%     83.05% # Type of FU issued
system.cpu0.iq.FU_type_0::SimdCvt                   0      0.00%     83.05% # Type of FU issued
system.cpu0.iq.FU_type_0::SimdMisc                  0      0.00%     83.05% # Type of FU issued
system.cpu0.iq.FU_type_0::SimdMult                  0      0.00%     83.05% # Type of FU issued
system.cpu0.iq.FU_type_0::SimdMultAcc               0      0.00%     83.05% # Type of FU issued
system.cpu0.iq.FU_type_0::SimdShift                 0      0.00%     83.05% # Type of FU issued
system.cpu0.iq.FU_type_0::SimdShiftAcc              0      0.00%     83.05% # Type of FU issued
system.cpu0.iq.FU_type_0::SimdSqrt                  0      0.00%     83.05% # Type of FU issued
system.cpu0.iq.FU_type_0::SimdFloatAdd              0      0.00%     83.05% # Type of FU issued
system.cpu0.iq.FU_type_0::SimdFloatAlu              0      0.00%     83.05% # Type of FU issued
system.cpu0.iq.FU_type_0::SimdFloatCmp              0      0.00%     83.05% # Type of FU issued
system.cpu0.iq.FU_type_0::SimdFloatCvt              0      0.00%     83.05% # Type of FU issued
system.cpu0.iq.FU_type_0::SimdFloatDiv              0      0.00%     83.05% # Type of FU issued
system.cpu0.iq.FU_type_0::SimdFloatMisc             0      0.00%     83.05% # Type of FU issued
system.cpu0.iq.FU_type_0::SimdFloatMult             0      0.00%     83.05% # Type of FU issued
system.cpu0.iq.FU_type_0::SimdFloatMultAcc            0      0.00%     83.05% # Type of FU issued
system.cpu0.iq.FU_type_0::SimdFloatSqrt             0      0.00%     83.05% # Type of FU issued
system.cpu0.iq.FU_type_0::MemRead             1091011     15.63%     98.68% # Type of FU issued
system.cpu0.iq.FU_type_0::MemWrite              87372      1.25%     99.93% # Type of FU issued
system.cpu0.iq.FU_type_0::FloatMemRead           4757      0.07%    100.00% # Type of FU issued
system.cpu0.iq.FU_type_0::FloatMemWrite            82      0.00%    100.00% # Type of FU issued
system.cpu0.iq.FU_type_0::IprAccess                 0      0.00%    100.00% # Type of FU issued
system.cpu0.iq.FU_type_0::InstPrefetch              0      0.00%    100.00% # Type of FU issued
system.cpu0.iq.FU_type_0::total               6981856                       # Type of FU issued
system.cpu0.iq.rate                          0.228653                       # Inst issue rate
system.cpu0.iq.fu_busy_cnt                      24621                       # FU busy when requested
system.cpu0.iq.fu_busy_rate                  0.003526                       # FU busy rate (busy events/executed inst)
system.cpu0.iq.int_inst_queue_reads          44424680                       # Number of integer instruction queue reads
system.cpu0.iq.int_inst_queue_writes         15523261                       # Number of integer instruction queue writes
system.cpu0.iq.int_inst_queue_wakeup_accesses      6675642                       # Number of integer instruction queue wakeup accesses
system.cpu0.iq.fp_inst_queue_reads              56933                       # Number of floating instruction queue reads
system.cpu0.iq.fp_inst_queue_writes             52816                       # Number of floating instruction queue writes
system.cpu0.iq.fp_inst_queue_wakeup_accesses        24575                       # Number of floating instruction queue wakeup accesses
system.cpu0.iq.vec_inst_queue_reads                 0                       # Number of vector instruction queue reads
system.cpu0.iq.vec_inst_queue_writes                0                       # Number of vector instruction queue writes
system.cpu0.iq.vec_inst_queue_wakeup_accesses            0                       # Number of vector instruction queue wakeup accesses
system.cpu0.iq.int_alu_accesses               6950718                       # Number of integer alu accesses
system.cpu0.iq.fp_alu_accesses                  29346                       # Number of floating point alu accesses
system.cpu0.iq.vec_alu_accesses                     0                       # Number of vector alu accesses
system.cpu0.iew.lsq.thread0.forwLoads            7123                       # Number of loads that had data forwarded from stores
system.cpu0.iew.lsq.thread0.invAddrLoads            0                       # Number of loads ignored due to an invalid address
system.cpu0.iew.lsq.thread0.squashedLoads      1115893                       # Number of loads squashed
system.cpu0.iew.lsq.thread0.ignoredResponses          235                       # Number of memory responses ignored because the instruction is squashed
system.cpu0.iew.lsq.thread0.memOrderViolation           10                       # Number of memory ordering violations
system.cpu0.iew.lsq.thread0.squashedStores        73091                       # Number of stores squashed
system.cpu0.iew.lsq.thread0.invAddrSwpfs            0                       # Number of software prefetches ignored due to an invalid address
system.cpu0.iew.lsq.thread0.blockedLoads            0                       # Number of blocked loads due to partial load-store forwarding
system.cpu0.iew.lsq.thread0.rescheduledLoads           65                       # Number of loads that were rescheduled
system.cpu0.iew.lsq.thread0.cacheBlocked         1952                       # Number of times an access to memory failed due to the cache being blocked
system.cpu0.iew.iewIdleCycles                       0                       # Number of cycles IEW is idle
system.cpu0.iew.iewSquashCycles                 96404                       # Number of cycles IEW is squashing
system.cpu0.iew.iewBlockCycles               24188926                       # Number of cycles IEW is blocking
system.cpu0.iew.iewUnblockCycles               305560                       # Number of cycles IEW is unblocking
system.cpu0.iew.iewDispatchedInsts            9649562                       # Number of instructions dispatched to IQ
system.cpu0.iew.iewDispSquashedInsts             5850                       # Number of squashed instructions skipped by dispatch
system.cpu0.iew.iewDispLoadInsts              1801082                       # Number of dispatched load instructions
system.cpu0.iew.iewDispStoreInsts              119632                       # Number of dispatched store instructions
system.cpu0.iew.iewDispNonSpecInsts              2880                       # Number of dispatched non-speculative instructions
system.cpu0.iew.iewIQFullEvents                 24967                       # Number of times the IQ has become full, causing a stall
system.cpu0.iew.iewLSQFullEvents                49462                       # Number of times the LSQ has become full, causing a stall
system.cpu0.iew.memOrderViolationEvents            10                       # Number of memory order violations
system.cpu0.iew.predictedTakenIncorrect         48896                       # Number of branches that were predicted taken incorrectly
system.cpu0.iew.predictedNotTakenIncorrect        58932                       # Number of branches that were predicted not taken incorrectly
system.cpu0.iew.branchMispredicts              107828                       # Number of branch mispredicts detected at execute
system.cpu0.iew.iewExecutedInsts              6842579                       # Number of executed instructions
system.cpu0.iew.iewExecLoadInsts              1041923                       # Number of load instructions executed
system.cpu0.iew.iewExecSquashedInsts           139277                       # Number of squashed instructions skipped in execute
system.cpu0.iew.exec_swp                            0                       # number of swp insts executed
system.cpu0.iew.exec_nop                            0                       # number of nop insts executed
system.cpu0.iew.exec_refs                     1122879                       # number of memory reference insts executed
system.cpu0.iew.exec_branches                  826315                       # Number of branches executed
system.cpu0.iew.exec_stores                     80956                       # Number of stores executed
system.cpu0.iew.exec_rate                    0.224092                       # Inst execution rate
system.cpu0.iew.wb_sent                       6726012                       # cumulative count of insts sent to commit
system.cpu0.iew.wb_count                      6700217                       # cumulative count of insts written-back
system.cpu0.iew.wb_producers                  4947022                       # num instructions producing a value
system.cpu0.iew.wb_consumers                  7896867                       # num instructions consuming a value
system.cpu0.iew.wb_rate                      0.219430                       # insts written-back per cycle
system.cpu0.iew.wb_fanout                    0.626454                       # average fanout of values written-back
system.cpu0.commit.commitSquashedInsts        5927286                       # The number of squashed insts skipped by commit
system.cpu0.commit.branchMispredicts            96397                       # The number of times a branch was mispredicted
system.cpu0.commit.committed_per_cycle::samples     29642695                       # Number of insts commited each cycle
system.cpu0.commit.committed_per_cycle::mean     0.125598                       # Number of insts commited each cycle
system.cpu0.commit.committed_per_cycle::stdev     0.665392                       # Number of insts commited each cycle
system.cpu0.commit.committed_per_cycle::underflows            0      0.00%      0.00% # Number of insts commited each cycle
system.cpu0.commit.committed_per_cycle::0     28076260     94.72%     94.72% # Number of insts commited each cycle
system.cpu0.commit.committed_per_cycle::1       706243      2.38%     97.10% # Number of insts commited each cycle
system.cpu0.commit.committed_per_cycle::2       175916      0.59%     97.69% # Number of insts commited each cycle
system.cpu0.commit.committed_per_cycle::3       461363      1.56%     99.25% # Number of insts commited each cycle
system.cpu0.commit.committed_per_cycle::4        82027      0.28%     99.52% # Number of insts commited each cycle
system.cpu0.commit.committed_per_cycle::5        49065      0.17%     99.69% # Number of insts commited each cycle
system.cpu0.commit.committed_per_cycle::6        10366      0.03%     99.73% # Number of insts commited each cycle
system.cpu0.commit.committed_per_cycle::7         6382      0.02%     99.75% # Number of insts commited each cycle
system.cpu0.commit.committed_per_cycle::8        75073      0.25%    100.00% # Number of insts commited each cycle
system.cpu0.commit.committed_per_cycle::overflows            0      0.00%    100.00% # Number of insts commited each cycle
system.cpu0.commit.committed_per_cycle::min_value            0                       # Number of insts commited each cycle
system.cpu0.commit.committed_per_cycle::max_value            8                       # Number of insts commited each cycle
system.cpu0.commit.committed_per_cycle::total     29642695                       # Number of insts commited each cycle
system.cpu0.commit.committedInsts             1863786                       # Number of instructions committed
system.cpu0.commit.committedOps               3723051                       # Number of ops (including micro ops) committed
system.cpu0.commit.swp_count                        0                       # Number of s/w prefetches committed
system.cpu0.commit.refs                        731728                       # Number of memory references committed
system.cpu0.commit.loads                       685187                       # Number of loads committed
system.cpu0.commit.membars                          0                       # Number of memory barriers committed
system.cpu0.commit.branches                    656918                       # Number of branches committed
system.cpu0.commit.vec_insts                        0                       # Number of committed Vector instructions.
system.cpu0.commit.fp_insts                     18818                       # Number of committed floating point instructions.
system.cpu0.commit.int_insts                  3704132                       # Number of committed integer instructions.
system.cpu0.commit.function_calls                8200                       # Number of function calls committed.
system.cpu0.commit.op_class_0::No_OpClass         5649      0.15%      0.15% # Class of committed instruction
system.cpu0.commit.op_class_0::IntAlu         2955562     79.39%     79.54% # Class of committed instruction
system.cpu0.commit.op_class_0::IntMult            328      0.01%     79.55% # Class of committed instruction
system.cpu0.commit.op_class_0::IntDiv           13740      0.37%     79.92% # Class of committed instruction
system.cpu0.commit.op_class_0::FloatAdd         16044      0.43%     80.35% # Class of committed instruction
system.cpu0.commit.op_class_0::FloatCmp             0      0.00%     80.35% # Class of committed instruction
system.cpu0.commit.op_class_0::FloatCvt             0      0.00%     80.35% # Class of committed instruction
system.cpu0.commit.op_class_0::FloatMult            0      0.00%     80.35% # Class of committed instruction
system.cpu0.commit.op_class_0::FloatMultAcc            0      0.00%     80.35% # Class of committed instruction
system.cpu0.commit.op_class_0::FloatDiv             0      0.00%     80.35% # Class of committed instruction
system.cpu0.commit.op_class_0::FloatMisc            0      0.00%     80.35% # Class of committed instruction
system.cpu0.commit.op_class_0::FloatSqrt            0      0.00%     80.35% # Class of committed instruction
system.cpu0.commit.op_class_0::SimdAdd              0      0.00%     80.35% # Class of committed instruction
system.cpu0.commit.op_class_0::SimdAddAcc            0      0.00%     80.35% # Class of committed instruction
system.cpu0.commit.op_class_0::SimdAlu              0      0.00%     80.35% # Class of committed instruction
system.cpu0.commit.op_class_0::SimdCmp              0      0.00%     80.35% # Class of committed instruction
system.cpu0.commit.op_class_0::SimdCvt              0      0.00%     80.35% # Class of committed instruction
system.cpu0.commit.op_class_0::SimdMisc             0      0.00%     80.35% # Class of committed instruction
system.cpu0.commit.op_class_0::SimdMult             0      0.00%     80.35% # Class of committed instruction
system.cpu0.commit.op_class_0::SimdMultAcc            0      0.00%     80.35% # Class of committed instruction
system.cpu0.commit.op_class_0::SimdShift            0      0.00%     80.35% # Class of committed instruction
system.cpu0.commit.op_class_0::SimdShiftAcc            0      0.00%     80.35% # Class of committed instruction
system.cpu0.commit.op_class_0::SimdSqrt             0      0.00%     80.35% # Class of committed instruction
system.cpu0.commit.op_class_0::SimdFloatAdd            0      0.00%     80.35% # Class of committed instruction
system.cpu0.commit.op_class_0::SimdFloatAlu            0      0.00%     80.35% # Class of committed instruction
system.cpu0.commit.op_class_0::SimdFloatCmp            0      0.00%     80.35% # Class of committed instruction
system.cpu0.commit.op_class_0::SimdFloatCvt            0      0.00%     80.35% # Class of committed instruction
system.cpu0.commit.op_class_0::SimdFloatDiv            0      0.00%     80.35% # Class of committed instruction
system.cpu0.commit.op_class_0::SimdFloatMisc            0      0.00%     80.35% # Class of committed instruction
system.cpu0.commit.op_class_0::SimdFloatMult            0      0.00%     80.35% # Class of committed instruction
system.cpu0.commit.op_class_0::SimdFloatMultAcc            0      0.00%     80.35% # Class of committed instruction
system.cpu0.commit.op_class_0::SimdFloatSqrt            0      0.00%     80.35% # Class of committed instruction
system.cpu0.commit.op_class_0::MemRead         682413     18.33%     98.68% # Class of committed instruction
system.cpu0.commit.op_class_0::MemWrite         46541      1.25%     99.93% # Class of committed instruction
system.cpu0.commit.op_class_0::FloatMemRead         2774      0.07%    100.00% # Class of committed instruction
system.cpu0.commit.op_class_0::FloatMemWrite            0      0.00%    100.00% # Class of committed instruction
system.cpu0.commit.op_class_0::IprAccess            0      0.00%    100.00% # Class of committed instruction
system.cpu0.commit.op_class_0::InstPrefetch            0      0.00%    100.00% # Class of committed instruction
system.cpu0.commit.op_class_0::total          3723051                       # Class of committed instruction
system.cpu0.commit.bw_lim_events                75073                       # number cycles where commit BW limit reached
system.cpu0.rob.rob_reads                    39217959                       # The number of ROB reads
system.cpu0.rob.rob_writes                   20144288                       # The number of ROB writes
system.cpu0.timesIdled                            485                       # Number of times that the entire CPU went into an idle state and unscheduled itself
system.cpu0.idleCycles                          51191                       # Total number of cycles that the CPU has spent unscheduled due to idling
system.cpu0.committedInsts                    1863786                       # Number of Instructions Simulated
system.cpu0.committedOps                      3723051                       # Number of Ops (including micro ops) Simulated
system.cpu0.cpi                             16.383151                       # CPI: Cycles Per Instruction
system.cpu0.cpi_total                       16.383151                       # CPI: Total CPI of All Threads
system.cpu0.ipc                              0.061038                       # IPC: Instructions Per Cycle
system.cpu0.ipc_total                        0.061038                       # IPC: Total IPC of All Threads
system.cpu0.int_regfile_reads                 6978051                       # number of integer regfile reads
system.cpu0.int_regfile_writes                5804737                       # number of integer regfile writes
system.cpu0.fp_regfile_reads                    43431                       # number of floating regfile reads
system.cpu0.fp_regfile_writes                   21673                       # number of floating regfile writes
system.cpu0.cc_regfile_reads                  4342023                       # number of cc regfile reads
system.cpu0.cc_regfile_writes                 1879385                       # number of cc regfile writes
system.cpu0.misc_regfile_reads                3572862                       # number of misc regfile reads
system.cpu0.dcache.tags.pwrStateResidencyTicks::UNDEFINED  15267344125                       # Cumulative time (in ticks) in various power states
system.cpu0.dcache.tags.replacements           348869                       # number of replacements
system.cpu0.dcache.tags.tagsinuse                1024                       # Cycle average of tags in use
system.cpu0.dcache.tags.total_refs             468869                       # Total number of references to valid blocks.
system.cpu0.dcache.tags.sampled_refs           348869                       # Sample count of references to valid blocks.
system.cpu0.dcache.tags.avg_refs             1.343969                       # Average number of references to valid blocks.
system.cpu0.dcache.tags.warmup_cycle                0                       # Cycle when the warmup percentage was hit.
system.cpu0.dcache.tags.occ_blocks::cpu0.data         1024                       # Average occupied blocks per requestor
system.cpu0.dcache.tags.occ_percent::cpu0.data            1                       # Average percentage of cache occupancy
system.cpu0.dcache.tags.occ_percent::total            1                       # Average percentage of cache occupancy
system.cpu0.dcache.tags.occ_task_id_blocks::1024         1024                       # Occupied blocks per task id
system.cpu0.dcache.tags.age_task_id_blocks_1024::0          236                       # Occupied blocks per task id
system.cpu0.dcache.tags.age_task_id_blocks_1024::1          783                       # Occupied blocks per task id
system.cpu0.dcache.tags.age_task_id_blocks_1024::2            5                       # Occupied blocks per task id
system.cpu0.dcache.tags.occ_task_id_percent::1024            1                       # Percentage of cache occupancy per task id
system.cpu0.dcache.tags.tag_accesses          4647909                       # Number of tag accesses
system.cpu0.dcache.tags.data_accesses         4647909                       # Number of data accesses
system.cpu0.dcache.pwrStateResidencyTicks::UNDEFINED  15267344125                       # Cumulative time (in ticks) in various power states
system.cpu0.dcache.ReadReq_hits::cpu0.data       420839                       # number of ReadReq hits
system.cpu0.dcache.ReadReq_hits::total         420839                       # number of ReadReq hits
system.cpu0.dcache.WriteReq_hits::cpu0.data        45092                       # number of WriteReq hits
system.cpu0.dcache.WriteReq_hits::total         45092                       # number of WriteReq hits
system.cpu0.dcache.demand_hits::cpu0.data       465931                       # number of demand (read+write) hits
system.cpu0.dcache.demand_hits::total          465931                       # number of demand (read+write) hits
system.cpu0.dcache.overall_hits::cpu0.data       465931                       # number of overall hits
system.cpu0.dcache.overall_hits::total         465931                       # number of overall hits
system.cpu0.dcache.ReadReq_misses::cpu0.data       607380                       # number of ReadReq misses
system.cpu0.dcache.ReadReq_misses::total       607380                       # number of ReadReq misses
system.cpu0.dcache.WriteReq_misses::cpu0.data         1449                       # number of WriteReq misses
system.cpu0.dcache.WriteReq_misses::total         1449                       # number of WriteReq misses
system.cpu0.dcache.demand_misses::cpu0.data       608829                       # number of demand (read+write) misses
system.cpu0.dcache.demand_misses::total        608829                       # number of demand (read+write) misses
system.cpu0.dcache.overall_misses::cpu0.data       608829                       # number of overall misses
system.cpu0.dcache.overall_misses::total       608829                       # number of overall misses
system.cpu0.dcache.ReadReq_miss_latency::cpu0.data  34112628000                       # number of ReadReq miss cycles
system.cpu0.dcache.ReadReq_miss_latency::total  34112628000                       # number of ReadReq miss cycles
system.cpu0.dcache.WriteReq_miss_latency::cpu0.data     60063499                       # number of WriteReq miss cycles
system.cpu0.dcache.WriteReq_miss_latency::total     60063499                       # number of WriteReq miss cycles
system.cpu0.dcache.demand_miss_latency::cpu0.data  34172691499                       # number of demand (read+write) miss cycles
system.cpu0.dcache.demand_miss_latency::total  34172691499                       # number of demand (read+write) miss cycles
system.cpu0.dcache.overall_miss_latency::cpu0.data  34172691499                       # number of overall miss cycles
system.cpu0.dcache.overall_miss_latency::total  34172691499                       # number of overall miss cycles
system.cpu0.dcache.ReadReq_accesses::cpu0.data      1028219                       # number of ReadReq accesses(hits+misses)
system.cpu0.dcache.ReadReq_accesses::total      1028219                       # number of ReadReq accesses(hits+misses)
system.cpu0.dcache.WriteReq_accesses::cpu0.data        46541                       # number of WriteReq accesses(hits+misses)
system.cpu0.dcache.WriteReq_accesses::total        46541                       # number of WriteReq accesses(hits+misses)
system.cpu0.dcache.demand_accesses::cpu0.data      1074760                       # number of demand (read+write) accesses
system.cpu0.dcache.demand_accesses::total      1074760                       # number of demand (read+write) accesses
system.cpu0.dcache.overall_accesses::cpu0.data      1074760                       # number of overall (read+write) accesses
system.cpu0.dcache.overall_accesses::total      1074760                       # number of overall (read+write) accesses
[...]
system.l2.ReadExReq_miss_rate::cpu0.data     0.305498                       # miss rate for ReadExReq accesses
system.l2.ReadExReq_miss_rate::total         0.305498                       # miss rate for ReadExReq accesses
system.l2.ReadCleanReq_miss_rate::cpu0.inst            1                       # miss rate for ReadCleanReq accesses
system.l2.ReadCleanReq_miss_rate::total             1                       # miss rate for ReadCleanReq accesses
system.l2.ReadSharedReq_miss_rate::cpu0.data     0.495009                       # miss rate for ReadSharedReq accesses
system.l2.ReadSharedReq_miss_rate::total     0.495009                       # miss rate for ReadSharedReq accesses
system.l2.demand_miss_rate::cpu0.inst               1                       # miss rate for demand accesses
system.l2.demand_miss_rate::cpu0.data        0.494228                       # miss rate for demand accesses
system.l2.demand_miss_rate::total            0.494230                       # miss rate for demand accesses
system.l2.overall_miss_rate::cpu0.inst              1                       # miss rate for overall accesses
system.l2.overall_miss_rate::cpu0.data       0.494228                       # miss rate for overall accesses
system.l2.overall_miss_rate::total           0.494230                       # miss rate for overall accesses
system.l2.ReadExReq_avg_miss_latency::cpu0.data 102487.471526                       # average ReadExReq miss latency
system.l2.ReadExReq_avg_miss_latency::total 102487.471526                       # average ReadExReq miss latency
system.l2.ReadCleanReq_avg_miss_latency::cpu0.inst        83500                       # average ReadCleanReq miss latency
system.l2.ReadCleanReq_avg_miss_latency::total        83500                       # average ReadCleanReq miss latency
system.l2.ReadSharedReq_avg_miss_latency::cpu0.data 95444.619204                       # average ReadSharedReq miss latency
system.l2.ReadSharedReq_avg_miss_latency::total 95444.619204                       # average ReadSharedReq miss latency
system.l2.demand_avg_miss_latency::cpu0.inst        83500                       # average overall miss latency
system.l2.demand_avg_miss_latency::cpu0.data 95462.550965                       # average overall miss latency
system.l2.demand_avg_miss_latency::total 95462.481586                       # average overall miss latency
system.l2.overall_avg_miss_latency::cpu0.inst        83500                       # average overall miss latency
system.l2.overall_avg_miss_latency::cpu0.data 95462.550965                       # average overall miss latency
system.l2.overall_avg_miss_latency::total 95462.481586                       # average overall miss latency
system.l2.blocked_cycles::no_mshrs                  0                       # number of cycles access was blocked
system.l2.blocked_cycles::no_targets                0                       # number of cycles access was blocked
system.l2.blocked::no_mshrs                         0                       # number of cycles access was blocked
system.l2.blocked::no_targets                       0                       # number of cycles access was blocked
system.l2.avg_blocked_cycles::no_mshrs            nan                       # average number of cycles each access was blocked
system.l2.avg_blocked_cycles::no_targets          nan                       # average number of cycles each access was blocked
system.l2.writebacks::writebacks                  573                       # number of writebacks
system.l2.writebacks::total                       573                       # number of writebacks
system.l2.ReadExReq_mshr_misses::cpu0.data          439                       # number of ReadExReq MSHR misses
system.l2.ReadExReq_mshr_misses::total            439                       # number of ReadExReq MSHR misses
system.l2.ReadCleanReq_mshr_misses::cpu0.inst            1                       # number of ReadCleanReq MSHR misses
system.l2.ReadCleanReq_mshr_misses::total            1                       # number of ReadCleanReq MSHR misses
system.l2.ReadSharedReq_mshr_misses::cpu0.data       171982                       # number of ReadSharedReq MSHR misses
system.l2.ReadSharedReq_mshr_misses::total       171982                       # number of ReadSharedReq MSHR misses
system.l2.demand_mshr_misses::cpu0.inst             1                       # number of demand (read+write) MSHR misses
system.l2.demand_mshr_misses::cpu0.data        172421                       # number of demand (read+write) MSHR misses
system.l2.demand_mshr_misses::total            172422                       # number of demand (read+write) MSHR misses
system.l2.overall_mshr_misses::cpu0.inst            1                       # number of overall MSHR misses
system.l2.overall_mshr_misses::cpu0.data       172421                       # number of overall MSHR misses
system.l2.overall_mshr_misses::total           172422                       # number of overall MSHR misses
system.l2.ReadExReq_mshr_miss_latency::cpu0.data     40602000                       # number of ReadExReq MSHR miss cycles
system.l2.ReadExReq_mshr_miss_latency::total     40602000                       # number of ReadExReq MSHR miss cycles
system.l2.ReadCleanReq_mshr_miss_latency::cpu0.inst        73500                       # number of ReadCleanReq MSHR miss cycles
system.l2.ReadCleanReq_mshr_miss_latency::total        73500                       # number of ReadCleanReq MSHR miss cycles
system.l2.ReadSharedReq_mshr_miss_latency::cpu0.data  14694936500                       # number of ReadSharedReq MSHR miss cycles
system.l2.ReadSharedReq_mshr_miss_latency::total  14694936500                       # number of ReadSharedReq MSHR miss cycles
system.l2.demand_mshr_miss_latency::cpu0.inst        73500                       # number of demand (read+write) MSHR miss cycles
system.l2.demand_mshr_miss_latency::cpu0.data  14735538500                       # number of demand (read+write) MSHR miss cycles
system.l2.demand_mshr_miss_latency::total  14735612000                       # number of demand (read+write) MSHR miss cycles
system.l2.overall_mshr_miss_latency::cpu0.inst        73500                       # number of overall MSHR miss cycles
system.l2.overall_mshr_miss_latency::cpu0.data  14735538500                       # number of overall MSHR miss cycles
system.l2.overall_mshr_miss_latency::total  14735612000                       # number of overall MSHR miss cycles
system.l2.ReadExReq_mshr_miss_rate::cpu0.data     0.305498                       # mshr miss rate for ReadExReq accesses
system.l2.ReadExReq_mshr_miss_rate::total     0.305498                       # mshr miss rate for ReadExReq accesses
system.l2.ReadCleanReq_mshr_miss_rate::cpu0.inst            1                       # mshr miss rate for ReadCleanReq accesses
system.l2.ReadCleanReq_mshr_miss_rate::total            1                       # mshr miss rate for ReadCleanReq accesses
system.l2.ReadSharedReq_mshr_miss_rate::cpu0.data     0.495009                       # mshr miss rate for ReadSharedReq accesses
system.l2.ReadSharedReq_mshr_miss_rate::total     0.495009                       # mshr miss rate for ReadSharedReq accesses
system.l2.demand_mshr_miss_rate::cpu0.inst            1                       # mshr miss rate for demand accesses
system.l2.demand_mshr_miss_rate::cpu0.data     0.494228                       # mshr miss rate for demand accesses
system.l2.demand_mshr_miss_rate::total       0.494230                       # mshr miss rate for demand accesses
system.l2.overall_mshr_miss_rate::cpu0.inst            1                       # mshr miss rate for overall accesses
system.l2.overall_mshr_miss_rate::cpu0.data     0.494228                       # mshr miss rate for overall accesses
system.l2.overall_mshr_miss_rate::total      0.494230                       # mshr miss rate for overall accesses
system.l2.ReadExReq_avg_mshr_miss_latency::cpu0.data 92487.471526                       # average ReadExReq mshr miss latency
system.l2.ReadExReq_avg_mshr_miss_latency::total 92487.471526                       # average ReadExReq mshr miss latency
system.l2.ReadCleanReq_avg_mshr_miss_latency::cpu0.inst        73500                       # average ReadCleanReq mshr miss latency
system.l2.ReadCleanReq_avg_mshr_miss_latency::total        73500                       # average ReadCleanReq mshr miss latency
system.l2.ReadSharedReq_avg_mshr_miss_latency::cpu0.data 85444.619204                       # average ReadSharedReq mshr miss latency
system.l2.ReadSharedReq_avg_mshr_miss_latency::total 85444.619204                       # average ReadSharedReq mshr miss latency
system.l2.demand_avg_mshr_miss_latency::cpu0.inst        73500                       # average overall mshr miss latency
system.l2.demand_avg_mshr_miss_latency::cpu0.data 85462.550965                       # average overall mshr miss latency
system.l2.demand_avg_mshr_miss_latency::total 85462.481586                       # average overall mshr miss latency
system.l2.overall_avg_mshr_miss_latency::cpu0.inst        73500                       # average overall mshr miss latency
system.l2.overall_avg_mshr_miss_latency::cpu0.data 85462.550965                       # average overall mshr miss latency
system.l2.overall_avg_mshr_miss_latency::total 85462.481586                       # average overall mshr miss latency
system.membus.snoop_filter.tot_requests        344842                       # Total number of requests made to the snoop filter.
system.membus.snoop_filter.hit_single_requests       172422                       # Number of requests hitting in the snoop filter with a single holder of the requested data.
system.membus.snoop_filter.hit_multi_requests            0                       # Number of requests hitting in the snoop filter with multiple (>1) holders of the requested data.
system.membus.snoop_filter.tot_snoops               0                       # Total number of snoops made to the snoop filter.
system.membus.snoop_filter.hit_single_snoops            0                       # Number of snoops hitting in the snoop filter with a single holder of the requested data.
system.membus.snoop_filter.hit_multi_snoops            0                       # Number of snoops hitting in the snoop filter with multiple (>1) holders of the requested data.
system.membus.pwrStateResidencyTicks::UNDEFINED  15267344125                       # Cumulative time (in ticks) in various power states
system.membus.trans_dist::ReadResp             171983                       # Transaction distribution
system.membus.trans_dist::WritebackDirty          573                       # Transaction distribution
system.membus.trans_dist::CleanEvict           171847                       # Transaction distribution
system.membus.trans_dist::ReadExReq               439                       # Transaction distribution
system.membus.trans_dist::ReadExResp              439                       # Transaction distribution
system.membus.trans_dist::ReadSharedReq        171983                       # Transaction distribution
system.membus.pkt_count_system.l2.mem_side::system.mem_ctrls.port       517264                       # Packet count per connected master and slave (bytes)
system.membus.pkt_count_system.l2.mem_side::total       517264                       # Packet count per connected master and slave (bytes)
system.membus.pkt_count::total                 517264                       # Packet count per connected master and slave (bytes)
system.membus.pkt_size_system.l2.mem_side::system.mem_ctrls.port     11071680                       # Cumulative packet size per connected master and slave (bytes)
system.membus.pkt_size_system.l2.mem_side::total     11071680                       # Cumulative packet size per connected master and slave (bytes)
system.membus.pkt_size::total                11071680                       # Cumulative packet size per connected master and slave (bytes)
system.membus.snoops                                0                       # Total snoops (count)
system.membus.snoopTraffic                          0                       # Total snoop traffic (bytes)
system.membus.snoop_fanout::samples            172422                       # Request fanout histogram
system.membus.snoop_fanout::mean                    0                       # Request fanout histogram
system.membus.snoop_fanout::stdev                   0                       # Request fanout histogram
system.membus.snoop_fanout::underflows              0      0.00%      0.00% # Request fanout histogram
system.membus.snoop_fanout::0                  172422    100.00%    100.00% # Request fanout histogram
system.membus.snoop_fanout::1                       0      0.00%    100.00% # Request fanout histogram
system.membus.snoop_fanout::overflows               0      0.00%    100.00% # Request fanout histogram
system.membus.snoop_fanout::min_value               0                       # Request fanout histogram
system.membus.snoop_fanout::max_value               0                       # Request fanout histogram
system.membus.snoop_fanout::total              172422                       # Request fanout histogram
system.membus.reqLayer8.occupancy           404440000                       # Layer occupancy (ticks)
system.membus.reqLayer8.utilization               2.6                       # Layer utilization (%)
system.membus.respLayer1.occupancy          936816750                       # Layer occupancy (ticks)
system.membus.respLayer1.utilization              6.1                       # Layer utilization (%)
system.tol2bus.snoop_filter.tot_requests       697740                       # Total number of requests made to the snoop filter.
system.tol2bus.snoop_filter.hit_single_requests       348870                       # Number of requests hitting in the snoop filter with a single holder of the requested data.
system.tol2bus.snoop_filter.hit_multi_requests          434                       # Number of requests hitting in the snoop filter with multiple (>1) holders of the requested data.
system.tol2bus.snoop_filter.tot_snoops              3                       # Total number of snoops made to the snoop filter.
system.tol2bus.snoop_filter.hit_single_snoops            3                       # Number of snoops hitting in the snoop filter with a single holder of the requested data.
system.tol2bus.snoop_filter.hit_multi_snoops            0                       # Number of snoops hitting in the snoop filter with multiple (>1) holders of the requested data.
system.tol2bus.pwrStateResidencyTicks::UNDEFINED  15267344125                       # Cumulative time (in ticks) in various power states
system.tol2bus.trans_dist::ReadResp            347433                       # Transaction distribution
system.tol2bus.trans_dist::WritebackDirty         4600                       # Transaction distribution
system.tol2bus.trans_dist::WritebackClean            1                       # Transaction distribution
system.tol2bus.trans_dist::CleanEvict          516692                       # Transaction distribution
system.tol2bus.trans_dist::ReadExReq             1437                       # Transaction distribution
system.tol2bus.trans_dist::ReadExResp            1437                       # Transaction distribution
system.tol2bus.trans_dist::ReadCleanReq             1                       # Transaction distribution
system.tol2bus.trans_dist::ReadSharedReq       347432                       # Transaction distribution
system.tol2bus.pkt_count_system.cpu0.icache.mem_side::system.l2.cpu_side            3                       # Packet count per connected master and slave (bytes)
system.tol2bus.pkt_count_system.cpu0.dcache.mem_side::system.l2.cpu_side      1046607                       # Packet count per connected master and slave (bytes)
system.tol2bus.pkt_count::total               1046610                       # Packet count per connected master and slave (bytes)
system.tol2bus.pkt_size_system.cpu0.icache.mem_side::system.l2.cpu_side          128                       # Cumulative packet size per connected master and slave (bytes)
system.tol2bus.pkt_size_system.cpu0.dcache.mem_side::system.l2.cpu_side     22585344                       # Cumulative packet size per connected master and slave (bytes)
system.tol2bus.pkt_size::total               22585472                       # Cumulative packet size per connected master and slave (bytes)
system.tol2bus.snoops                          172423                       # Total snoops (count)
system.tol2bus.snoopTraffic                     36672                       # Total snoop traffic (bytes)
system.tol2bus.snoop_fanout::samples           521293                       # Request fanout histogram
system.tol2bus.snoop_fanout::mean            0.000838                       # Request fanout histogram
system.tol2bus.snoop_fanout::stdev           0.028941                       # Request fanout histogram
system.tol2bus.snoop_fanout::underflows             0      0.00%      0.00% # Request fanout histogram
system.tol2bus.snoop_fanout::0                 520856     99.92%     99.92% # Request fanout histogram
system.tol2bus.snoop_fanout::1                    437      0.08%    100.00% # Request fanout histogram
system.tol2bus.snoop_fanout::2                      0      0.00%    100.00% # Request fanout histogram
system.tol2bus.snoop_fanout::3                      0      0.00%    100.00% # Request fanout histogram
system.tol2bus.snoop_fanout::4                      0      0.00%    100.00% # Request fanout histogram
system.tol2bus.snoop_fanout::5                      0      0.00%    100.00% # Request fanout histogram
system.tol2bus.snoop_fanout::6                      0      0.00%    100.00% # Request fanout histogram
system.tol2bus.snoop_fanout::7                      0      0.00%    100.00% # Request fanout histogram
system.tol2bus.snoop_fanout::8                      0      0.00%    100.00% # Request fanout histogram
system.tol2bus.snoop_fanout::9                      0      0.00%    100.00% # Request fanout histogram
system.tol2bus.snoop_fanout::10                     0      0.00%    100.00% # Request fanout histogram
system.tol2bus.snoop_fanout::11                     0      0.00%    100.00% # Request fanout histogram
system.tol2bus.snoop_fanout::12                     0      0.00%    100.00% # Request fanout histogram
system.tol2bus.snoop_fanout::13                     0      0.00%    100.00% # Request fanout histogram
system.tol2bus.snoop_fanout::14                     0      0.00%    100.00% # Request fanout histogram
system.tol2bus.snoop_fanout::15                     0      0.00%    100.00% # Request fanout histogram
system.tol2bus.snoop_fanout::16                     0      0.00%    100.00% # Request fanout histogram
system.tol2bus.snoop_fanout::overflows              0      0.00%    100.00% # Request fanout histogram
system.tol2bus.snoop_fanout::min_value              0                       # Request fanout histogram
system.tol2bus.snoop_fanout::max_value              1                       # Request fanout histogram
system.tol2bus.snoop_fanout::total             521293                       # Request fanout histogram
system.tol2bus.reqLayer0.occupancy          352898000                       # Layer occupancy (ticks)
system.tol2bus.reqLayer0.utilization              2.3                       # Layer utilization (%)
system.tol2bus.respLayer0.occupancy              1500                       # Layer occupancy (ticks)
system.tol2bus.respLayer0.utilization             0.0                       # Layer utilization (%)
system.tol2bus.respLayer1.occupancy         523303500                       # Layer occupancy (ticks)
system.tol2bus.respLayer1.utilization             3.4                       # Layer utilization (%)

---------- End Simulation Statistics   ----------
