
---------- Begin Simulation Statistics ----------
sim_seconds                                  0.015267                       # Number of seconds simulated
sim_ticks                                 15267344125                       # Number of ticks simulated
final_tick                               4748144022875                       # Number of ticks from beginning of simulation (restored from checkpoints and never reset)
sim_freq                                 1000000000000                       # Frequency of simulated ticks
host_inst_rate                              121415025                       # Simulator instruction rate (inst/s)
host_op_rate                                225635581                       # Simulator op (including micro ops) rate (op/s)
host_tick_rate                              319837206                       # Simulator tick rate (ticks/s)
host_mem_usage                                2332684                       # Number of bytes of host memory used
host_seconds                                    47.73                       # Real time elapsed on the host
sim_insts                                  5795711725                       # Number of instructions simulated
sim_ops                                   10770652612                       # Number of ops (including micro ops) simulated
system.voltage_domain.voltage                       1                       # Voltage in Volts
system.clk_domain.clock                          1000                       # Clock period in ticks
system.mem_ctrls.pwrStateResidencyTicks::UNDEFINED  15267344125                       # Cumulative time (in ticks) in various power states
system.mem_ctrls.bytes_read::cpu0.data       11465088                       # Number of bytes read from this memory
system.mem_ctrls.bytes_read::total           11465088                       # Number of bytes read from this memory
system.mem_ctrls.bytes_written::writebacks        27520                       # Number of bytes written to this memory
system.mem_ctrls.bytes_written::total           27520                       # Number of bytes written to this memory
system.mem_ctrls.num_reads::cpu0.data          179142                       # Number of read requests responded to by this memory
system.mem_ctrls.num_reads::total              179142                       # Number of read requests responded to by this memory
system.mem_ctrls.num_writes::writebacks           430                       # Number of write requests responded to by this memory
system.mem_ctrls.num_writes::total                430                       # Number of write requests responded to by this memory
system.mem_ctrls.bw_read::cpu0.data         750954973                       # Total read bandwidth from this memory (bytes/s)
system.mem_ctrls.bw_read::total             750954973                       # Total read bandwidth from this memory (bytes/s)
system.mem_ctrls.bw_write::writebacks         1802540                       # Write bandwidth from this memory (bytes/s)
system.mem_ctrls.bw_write::total              1802540                       # Write bandwidth from this memory (bytes/s)
system.mem_ctrls.bw_total::writebacks         1802540                       # Total bandwidth to/from this memory (bytes/s)
system.mem_ctrls.bw_total::cpu0.data        750954973                       # Total bandwidth to/from this memory (bytes/s)
system.mem_ctrls.bw_total::total            752757513                       # Total bandwidth to/from this memory (bytes/s)
system.mem_ctrls.readReqs                      179143                       # Number of read requests accepted
system.mem_ctrls.writeReqs                        430                       # Number of write requests accepted
system.mem_ctrls.readBursts                    179143                       # Number of DRAM read bursts, including those serviced by the write queue
system.mem_ctrls.writeBursts                      430                       # Number of DRAM write bursts, including those merged in the write queue
system.mem_ctrls.bytesReadDRAM               11462528                       # Total number of bytes read from DRAM
system.mem_ctrls.bytesReadWrQ                    2624                       # Total number of bytes read from write queue
system.mem_ctrls.bytesWritten                   27648                       # Total number of bytes written to DRAM
system.mem_ctrls.bytesReadSys                11465152                       # Total read bytes from the system interface side
system.mem_ctrls.bytesWrittenSys                27520                       # Total written bytes from the system interface side
system.mem_ctrls.servicedByWrQ                     41                       # Number of DRAM read bursts serviced by the write queue
system.mem_ctrls.mergedWrBursts                     0                       # Number of DRAM write bursts merged with an existing one
system.mem_ctrls.neitherReadNorWriteReqs            0                       # Number of requests that are neither read nor write
system.mem_ctrls.perBankRdBursts::0             11271                       # Per bank write bursts
system.mem_ctrls.perBankRdBursts::1             11488                       # Per bank write bursts
system.mem_ctrls.perBankRdBursts::2             11001                       # Per bank write bursts
system.mem_ctrls.perBankRdBursts::3             11250                       # Per bank write bursts
system.mem_ctrls.perBankRdBursts::4             11327                       # Per bank write bursts
system.mem_ctrls.perBankRdBursts::5             10990                       # Per bank write bursts
system.mem_ctrls.perBankRdBursts::6             11098                       # Per bank write bursts
system.mem_ctrls.perBankRdBursts::7             10939                       # Per bank write bursts
system.mem_ctrls.perBankRdBursts::8             10969                       # Per bank write bursts
system.mem_ctrls.perBankRdBursts::9             10832                       # Per bank write bursts
system.mem_ctrls.perBankRdBursts::10            10873                       # Per bank write bursts
system.mem_ctrls.perBankRdBursts::11            11211                       # Per bank write bursts
system.mem_ctrls.perBankRdBursts::12            11798                       # Per bank write bursts
system.mem_ctrls.perBankRdBursts::13            11504                       # Per bank write bursts
system.mem_ctrls.perBankRdBursts::14            11404                       # Per bank write bursts
system.mem_ctrls.perBankRdBursts::15            11147                       # Per bank write bursts
system.mem_ctrls.perBankWrBursts::0               138                       # Per bank write bursts
system.mem_ctrls.perBankWrBursts::1                15                       # Per bank write bursts
system.mem_ctrls.perBankWrBursts::2                 0                       # Per bank write bursts
system.mem_ctrls.perBankWrBursts::3                 0                       # Per bank write bursts
system.mem_ctrls.perBankWrBursts::4                13                       # Per bank write bursts
system.mem_ctrls.perBankWrBursts::5                 2                       # Per bank write bursts
system.mem_ctrls.perBankWrBursts::6                 0                       # Per bank write bursts
system.mem_ctrls.perBankWrBursts::7                 0                       # Per bank write bursts
system.mem_ctrls.perBankWrBursts::8                 1                       # Per bank write bursts
system.mem_ctrls.perBankWrBursts::9                 0                       # Per bank write bursts
system.mem_ctrls.perBankWrBursts::10                0                       # Per bank write bursts
system.mem_ctrls.perBankWrBursts::11                0                       # Per bank write bursts
system.mem_ctrls.perBankWrBursts::12               91                       # Per bank write bursts
system.mem_ctrls.perBankWrBursts::13                1                       # Per bank write bursts
system.mem_ctrls.perBankWrBursts::14               46                       # Per bank write bursts
system.mem_ctrls.perBankWrBursts::15              125                       # Per bank write bursts
system.mem_ctrls.numRdRetry                         0                       # Number of times read queue was full causing retry
system.mem_ctrls.numWrRetry                         0                       # Number of times write queue was full causing retry
system.mem_ctrls.totGap                   15267394500                       # Total gap between requests
system.mem_ctrls.readPktSize::0                     0                       # Read request sizes (log2)
system.mem_ctrls.readPktSize::1                     0                       # Read request sizes (log2)
system.mem_ctrls.readPktSize::2                     0                       # Read request sizes (log2)
system.mem_ctrls.readPktSize::3                     0                       # Read request sizes (log2)
system.mem_ctrls.readPktSize::4                     0                       # Read request sizes (log2)
system.mem_ctrls.readPktSize::5                     0                       # Read request sizes (log2)
system.mem_ctrls.readPktSize::6                179143                       # Read request sizes (log2)
system.mem_ctrls.writePktSize::0                    0                       # Write request sizes (log2)
system.mem_ctrls.writePktSize::1                    0                       # Write request sizes (log2)
system.mem_ctrls.writePktSize::2                    0                       # Write request sizes (log2)
system.mem_ctrls.writePktSize::3                    0                       # Write request sizes (log2)
system.mem_ctrls.writePktSize::4                    0                       # Write request sizes (log2)
system.mem_ctrls.writePktSize::5                    0                       # Write request sizes (log2)
system.mem_ctrls.writePktSize::6                  430                       # Write request sizes (log2)
system.mem_ctrls.rdQLenPdf::0                  138568                       # What read queue length does an incoming req see
system.mem_ctrls.rdQLenPdf::1                   38365                       # What read queue length does an incoming req see
system.mem_ctrls.rdQLenPdf::2                    2126                       # What read queue length does an incoming req see
system.mem_ctrls.rdQLenPdf::3                      43                       # What read queue length does an incoming req see
system.mem_ctrls.rdQLenPdf::4                       0                       # What read queue length does an incoming req see
system.mem_ctrls.rdQLenPdf::5                       0                       # What read queue length does an incoming req see
system.mem_ctrls.rdQLenPdf::6                       0                       # What read queue length does an incoming req see
system.mem_ctrls.rdQLenPdf::7                       0                       # What read queue length does an incoming req see
system.mem_ctrls.rdQLenPdf::8                       0                       # What read queue length does an incoming req see
system.mem_ctrls.rdQLenPdf::9                       0                       # What read queue length does an incoming req see
system.mem_ctrls.rdQLenPdf::10                      0                       # What read queue length does an incoming req see
system.mem_ctrls.rdQLenPdf::11                      0                       # What read queue length does an incoming req see
system.mem_ctrls.rdQLenPdf::12                      0                       # What read queue length does an incoming req see
system.mem_ctrls.rdQLenPdf::13                      0                       # What read queue length does an incoming req see
system.mem_ctrls.rdQLenPdf::14                      0                       # What read queue length does an incoming req see
system.mem_ctrls.rdQLenPdf::15                      0                       # What read queue length does an incoming req see
system.mem_ctrls.rdQLenPdf::16                      0                       # What read queue length does an incoming req see
system.mem_ctrls.rdQLenPdf::17                      0                       # What read queue length does an incoming req see
system.mem_ctrls.rdQLenPdf::18                      0                       # What read queue length does an incoming req see
system.mem_ctrls.rdQLenPdf::19                      0                       # What read queue length does an incoming req see
system.mem_ctrls.rdQLenPdf::20                      0                       # What read queue length does an incoming req see
system.mem_ctrls.rdQLenPdf::21                      0                       # What read queue length does an incoming req see
system.mem_ctrls.rdQLenPdf::22                      0                       # What read queue length does an incoming req see
system.mem_ctrls.rdQLenPdf::23                      0                       # What read queue length does an incoming req see
system.mem_ctrls.rdQLenPdf::24                      0                       # What read queue length does an incoming req see
system.mem_ctrls.rdQLenPdf::25                      0                       # What read queue length does an incoming req see
system.mem_ctrls.rdQLenPdf::26                      0                       # What read queue length does an incoming req see
system.mem_ctrls.rdQLenPdf::27                      0                       # What read queue length does an incoming req see
system.mem_ctrls.rdQLenPdf::28                      0                       # What read queue length does an incoming req see
system.mem_ctrls.rdQLenPdf::29                      0                       # What read queue length does an incoming req see
system.mem_ctrls.rdQLenPdf::30                      0                       # What read queue length does an incoming req see
system.mem_ctrls.rdQLenPdf::31                      0                       # What read queue length does an incoming req see
system.mem_ctrls.wrQLenPdf::0                       0                       # What write queue length does an incoming req see
system.mem_ctrls.wrQLenPdf::1                       0                       # What write queue length does an incoming req see
system.mem_ctrls.wrQLenPdf::2                       0                       # What write queue length does an incoming req see
system.mem_ctrls.wrQLenPdf::3                       0                       # What write queue length does an incoming req see
system.mem_ctrls.wrQLenPdf::4                       0                       # What write queue length does an incoming req see
system.mem_ctrls.wrQLenPdf::5                       0                       # What write queue length does an incoming req see
system.mem_ctrls.wrQLenPdf::6                       0                       # What write queue length does an incoming req see
system.mem_ctrls.wrQLenPdf::7                       0                       # What write queue length does an incoming req see
system.mem_ctrls.wrQLenPdf::8                       0                       # What write queue length does an incoming req see
system.mem_ctrls.wrQLenPdf::9                       0                       # What write queue length does an incoming req see
system.mem_ctrls.wrQLenPdf::10                      0                       # What write queue length does an incoming req see
system.mem_ctrls.wrQLenPdf::11                      0                       # What write queue length does an incoming req see
system.mem_ctrls.wrQLenPdf::12                      0                       # What write queue length does an incoming req see
system.mem_ctrls.wrQLenPdf::13                      0                       # What write queue length does an incoming req see
system.mem_ctrls.wrQLenPdf::14                      0                       # What write queue length does an incoming req see
system.mem_ctrls.wrQLenPdf::15                      0                       # What write queue length does an incoming req see
system.mem_ctrls.wrQLenPdf::16                      0                       # What write queue length does an incoming req see
system.mem_ctrls.wrQLenPdf::17                     27                       # What write queue length does an incoming req see
system.mem_ctrls.wrQLenPdf::18                     27                       # What write queue length does an incoming req see
system.mem_ctrls.wrQLenPdf::19                     27                       # What write queue length does an incoming req see
system.mem_ctrls.wrQLenPdf::20                     27                       # What write queue length does an incoming req see
system.mem_ctrls.wrQLenPdf::21                     27                       # What write queue length does an incoming req see
system.mem_ctrls.wrQLenPdf::22                     27                       # What write queue length does an incoming req see
system.mem_ctrls.wrQLenPdf::23                     27                       # What write queue length does an incoming req see
system.mem_ctrls.wrQLenPdf::24                     27                       # What write queue length does an incoming req see
system.mem_ctrls.wrQLenPdf::25                     26                       # What write queue length does an incoming req see
system.mem_ctrls.wrQLenPdf::26                     26                       # What write queue length does an incoming req see
system.mem_ctrls.wrQLenPdf::27                     27                       # What write queue length does an incoming req see
system.mem_ctrls.wrQLenPdf::28                     27                       # What write queue length does an incoming req see
system.mem_ctrls.wrQLenPdf::29                     27                       # What write queue length does an incoming req see
system.mem_ctrls.wrQLenPdf::30                     27                       # What write queue length does an incoming req see
system.mem_ctrls.wrQLenPdf::31                     27                       # What write queue length does an incoming req see
system.mem_ctrls.wrQLenPdf::32                     27                       # What write queue length does an incoming req see
system.mem_ctrls.wrQLenPdf::33                      0                       # What write queue length does an incoming req see
system.mem_ctrls.wrQLenPdf::34                      0                       # What write queue length does an incoming req see
system.mem_ctrls.wrQLenPdf::35                      0                       # What write queue length does an incoming req see
system.mem_ctrls.wrQLenPdf::36                      0                       # What write queue length does an incoming req see
system.mem_ctrls.wrQLenPdf::37                      0                       # What write queue length does an incoming req see
system.mem_ctrls.wrQLenPdf::38                      0                       # What write queue length does an incoming req see
system.mem_ctrls.wrQLenPdf::39                      0                       # What write queue length does an incoming req see
system.mem_ctrls.wrQLenPdf::40                      0                       # What write queue length does an incoming req see
system.mem_ctrls.wrQLenPdf::41                      0                       # What write queue length does an incoming req see
system.mem_ctrls.wrQLenPdf::42                      0                       # What write queue length does an incoming req see
system.mem_ctrls.wrQLenPdf::43                      0                       # What write queue length does an incoming req see
system.mem_ctrls.wrQLenPdf::44                      0                       # What write queue length does an incoming req see
system.mem_ctrls.wrQLenPdf::45                      0                       # What write queue length does an incoming req see
system.mem_ctrls.wrQLenPdf::46                      0                       # What write queue length does an incoming req see
system.mem_ctrls.wrQLenPdf::47                      0                       # What write queue length does an incoming req see
system.mem_ctrls.wrQLenPdf::48                      0                       # What write queue length does an incoming req see
system.mem_ctrls.wrQLenPdf::49                      0                       # What write queue length does an incoming req see
system.mem_ctrls.wrQLenPdf::50                      0                       # What write queue length does an incoming req see
system.mem_ctrls.wrQLenPdf::51                      0                       # What write queue length does an incoming req see
system.mem_ctrls.wrQLenPdf::52                      0                       # What write queue length does an incoming req see
system.mem_ctrls.wrQLenPdf::53                      0                       # What write queue length does an incoming req see
system.mem_ctrls.wrQLenPdf::54                      0                       # What write queue length does an incoming req see
system.mem_ctrls.wrQLenPdf::55                      0                       # What write queue length does an incoming req see
system.mem_ctrls.wrQLenPdf::56                      0                       # What write queue length does an incoming req see
system.mem_ctrls.wrQLenPdf::57                      0                       # What write queue length does an incoming req see
system.mem_ctrls.wrQLenPdf::58                      0                       # What write queue length does an incoming req see
system.mem_ctrls.wrQLenPdf::59                      0                       # What write queue length does an incoming req see
system.mem_ctrls.wrQLenPdf::60                      0                       # What write queue length does an incoming req see
system.mem_ctrls.wrQLenPdf::61                      0                       # What write queue length does an incoming req see
system.mem_ctrls.wrQLenPdf::62                      0                       # What write queue length does an incoming req see
system.mem_ctrls.wrQLenPdf::63                      0                       # What write queue length does an incoming req see
system.mem_ctrls.bytesPerActivate::samples        95438                       # Bytes accessed per row activation
system.mem_ctrls.bytesPerActivate::mean    120.401517                       # Bytes accessed per row activation
system.mem_ctrls.bytesPerActivate::gmean   104.026463                       # Bytes accessed per row activation
system.mem_ctrls.bytesPerActivate::stdev    72.025109                       # Bytes accessed per row activation
system.mem_ctrls.bytesPerActivate::0-127        46033     48.23%     48.23% # Bytes accessed per row activation
system.mem_ctrls.bytesPerActivate::128-255        40676     42.62%     90.85% # Bytes accessed per row activation
system.mem_ctrls.bytesPerActivate::256-383         7728      8.10%     98.95% # Bytes accessed per row activation
system.mem_ctrls.bytesPerActivate::384-511          892      0.93%     99.89% # Bytes accessed per row activation
system.mem_ctrls.bytesPerActivate::512-639           87      0.09%     99.98% # Bytes accessed per row activation
system.mem_ctrls.bytesPerActivate::640-767            9      0.01%     99.99% # Bytes accessed per row activation
system.mem_ctrls.bytesPerActivate::768-895            2      0.00%     99.99% # Bytes accessed per row activation
system.mem_ctrls.bytesPerActivate::896-1023            3      0.00%     99.99% # Bytes accessed per row activation
system.mem_ctrls.bytesPerActivate::1024-1151            8      0.01%    100.00% # Bytes accessed per row activation
system.mem_ctrls.bytesPerActivate::total        95438                       # Bytes accessed per row activation
system.mem_ctrls.rdPerTurnAround::samples           27                       # Reads before turning the bus around for writes
system.mem_ctrls.rdPerTurnAround::mean    6669.962963                       # Reads before turning the bus around for writes
system.mem_ctrls.rdPerTurnAround::gmean   6285.001521                       # Reads before turning the bus around for writes
system.mem_ctrls.rdPerTurnAround::stdev   2196.276420                       # Reads before turning the bus around for writes
system.mem_ctrls.rdPerTurnAround::2048-2559            1      3.70%      3.70% # Reads before turning the bus around for writes
system.mem_ctrls.rdPerTurnAround::2560-3071            1      3.70%      7.41% # Reads before turning the bus around for writes
system.mem_ctrls.rdPerTurnAround::4096-4607            3     11.11%     18.52% # Reads before turning the bus around for writes
system.mem_ctrls.rdPerTurnAround::4608-5119            1      3.70%     22.22% # Reads before turning the bus around for writes
system.mem_ctrls.rdPerTurnAround::5120-5631            1      3.70%     25.93% # Reads before turning the bus around for writes
system.mem_ctrls.rdPerTurnAround::5632-6143            5     18.52%     44.44% # Reads before turning the bus around for writes
system.mem_ctrls.rdPerTurnAround::6144-6655            3     11.11%     55.56% # Reads before turning the bus around for writes
system.mem_ctrls.rdPerTurnAround::6656-7167            3     11.11%     66.67% # Reads before turning the bus around for writes
system.mem_ctrls.rdPerTurnAround::7168-7679            2      7.41%     74.07% # Reads before turning the bus around for writes
system.mem_ctrls.rdPerTurnAround::8192-8703            1      3.70%     77.78% # Reads before turning the bus around for writes
system.mem_ctrls.rdPerTurnAround::8704-9215            3     11.11%     88.89% # Reads before turning the bus around for writes
system.mem_ctrls.rdPerTurnAround::9728-10239            2      7.41%     96.30% # Reads before turning the bus around for writes
system.mem_ctrls.rdPerTurnAround::11264-11775            1      3.70%    100.00% # Reads before turning the bus around for writes
system.mem_ctrls.rdPerTurnAround::total            27                       # Reads before turning the bus around for writes
system.mem_ctrls.wrPerTurnAround::samples           27                       # Writes before turning the bus around for reads
system.mem_ctrls.wrPerTurnAround::mean             16                       # Writes before turning the bus around for reads
system.mem_ctrls.wrPerTurnAround::gmean     16.000000                       # Writes before turning the bus around for reads
system.mem_ctrls.wrPerTurnAround::16               27    100.00%    100.00% # Writes before turning the bus around for reads
system.mem_ctrls.wrPerTurnAround::total            27                       # Writes before turning the bus around for reads
system.mem_ctrls.totQLat                   4480061500                       # Total ticks spent queuing
system.mem_ctrls.totMemAccLat              7838224000                       # Total ticks spent from burst creation until serviced by the DRAM
system.mem_ctrls.totBusLat                  895510000                       # Total ticks spent in databus transfers
system.mem_ctrls.avgQLat                     25014.02                       # Average queueing delay per DRAM burst
system.mem_ctrls.avgBusLat                    5000.00                       # Average bus latency per DRAM burst
system.mem_ctrls.avgMemAccLat                43764.02                       # Average memory access latency per DRAM burst
system.mem_ctrls.avgRdBW                       750.79                       # Average DRAM read bandwidth in MiByte/s
system.mem_ctrls.avgWrBW                         1.81                       # Average achieved write bandwidth in MiByte/s
system.mem_ctrls.avgRdBWSys                    750.96                       # Average system read bandwidth in MiByte/s
system.mem_ctrls.avgWrBWSys                      1.80                       # Average system write bandwidth in MiByte/s
system.mem_ctrls.peakBW                      12800.00                       # Theoretical peak bandwidth in MiByte/s
system.mem_ctrls.busUtil                         5.88                       # Data bus utilization in percentage
system.mem_ctrls.busUtilRead                     5.87                       # Data bus utilization in percentage for reads
system.mem_ctrls.busUtilWrite                    0.01                       # Data bus utilization in percentage for writes
system.mem_ctrls.avgRdQLen                       1.28                       # Average read queue length when enqueuing
system.mem_ctrls.avgWrQLen                      25.29                       # Average write queue length when enqueuing
system.mem_ctrls.readRowHits                    83734                       # Number of row buffer hits during reads
system.mem_ctrls.writeRowHits                     366                       # Number of row buffer hits during writes
system.mem_ctrls.readRowHitRate                 46.75                       # Row buffer hit rate for reads
system.mem_ctrls.writeRowHitRate                85.12                       # Row buffer hit rate for writes
system.mem_ctrls.avgGap                      85020.55                       # Average gap between requests
system.mem_ctrls.pageHitRate                    46.84                       # Row buffer hit rate, read and write combined
system.mem_ctrls_0.actEnergy                340071060                       # Energy for activate commands per rank (pJ)
system.mem_ctrls_0.preEnergy                180759645                       # Energy for precharge commands per rank (pJ)
system.mem_ctrls_0.readEnergy               638058960                       # Energy for read commands per rank (pJ)
system.mem_ctrls_0.writeEnergy                 876960                       # Energy for write commands per rank (pJ)
system.mem_ctrls_0.refreshEnergy         1205923680.000000                       # Energy for refresh commands per rank (pJ)
system.mem_ctrls_0.actBackEnergy           1555381800                       # Energy for active background per rank (pJ)
system.mem_ctrls_0.preBackEnergy             24897120                       # Energy for precharge background per rank (pJ)
system.mem_ctrls_0.actPowerDownEnergy      5169379590                       # Energy for active power-down per rank (pJ)
system.mem_ctrls_0.prePowerDownEnergy       165656160                       # Energy for precharge power-down per rank (pJ)
system.mem_ctrls_0.selfRefreshEnergy          8480100                       # Energy for self refresh per rank (pJ)
system.mem_ctrls_0.totalEnergy             9289485075                       # Total energy per rank (pJ)
system.mem_ctrls_0.averagePower            608.454555                       # Core power per rank (mW)
system.mem_ctrls_0.totalIdleTime          11791323750                       # Total Idle time Per DRAM Rank
system.mem_ctrls_0.memoryStateTime::IDLE     10860000                       # Time in different power states
system.mem_ctrls_0.memoryStateTime::REF     510150000                       # Time in different power states
system.mem_ctrls_0.memoryStateTime::SREF     23829000                       # Time in different power states
system.mem_ctrls_0.memoryStateTime::PRE_PDN    431327000                       # Time in different power states
system.mem_ctrls_0.memoryStateTime::ACT    2955010375                       # Time in different power states
system.mem_ctrls_0.memoryStateTime::ACT_PDN  11336167750                       # Time in different power states
system.mem_ctrls_1.actEnergy                341327700                       # Energy for activate commands per rank (pJ)
system.mem_ctrls_1.preEnergy                181427565                       # Energy for precharge commands per rank (pJ)
system.mem_ctrls_1.readEnergy               640729320                       # Energy for read commands per rank (pJ)
system.mem_ctrls_1.writeEnergy                1378080                       # Energy for write commands per rank (pJ)
system.mem_ctrls_1.refreshEnergy         1205923680.000000                       # Energy for refresh commands per rank (pJ)
system.mem_ctrls_1.actBackEnergy           1559034930                       # Energy for active background per rank (pJ)
system.mem_ctrls_1.preBackEnergy             24866880                       # Energy for precharge background per rank (pJ)
system.mem_ctrls_1.actPowerDownEnergy      5172022680                       # Energy for active power-down per rank (pJ)
system.mem_ctrls_1.prePowerDownEnergy       165878880                       # Energy for precharge power-down per rank (pJ)
system.mem_ctrls_1.selfRefreshEnergy          3941520                       # Energy for self refresh per rank (pJ)
system.mem_ctrls_1.totalEnergy             9296531235                       # Total energy per rank (pJ)
system.mem_ctrls_1.averagePower            608.916073                       # Core power per rank (mW)
system.mem_ctrls_1.totalIdleTime          11783378000                       # Total Idle time Per DRAM Rank
system.mem_ctrls_1.memoryStateTime::IDLE     10344000                       # Time in different power states
system.mem_ctrls_1.memoryStateTime::REF     510138000                       # Time in different power states
system.mem_ctrls_1.memoryStateTime::SREF      9520750                       # Time in different power states
system.mem_ctrls_1.memoryStateTime::PRE_PDN    432074000                       # Time in different power states
system.mem_ctrls_1.memoryStateTime::ACT    2962495250                       # Time in different power states
system.mem_ctrls_1.memoryStateTime::ACT_PDN  11342772125                       # Time in different power states
system.pwrStateResidencyTicks::UNDEFINED  15267344125                       # Cumulative time (in ticks) in various power states
system.cpu0.branchPred.lookups                1638408                       # Number of BP lookups
system.cpu0.branchPred.condPredicted          1638408                       # Number of conditional branches predicted
system.cpu0.branchPred.condIncorrect            66920                       # Number of conditional branches incorrect
system.cpu0.branchPred.BTBLookups             1341819                       # Number of BTB lookups
system.cpu0.branchPred.BTBHits                      0                       # Number of BTB hits
system.cpu0.branchPred.BTBCorrect                   0                       # Number of correct BTB predictions (this stat may not work properly.
system.cpu0.branchPred.BTBHitPct             0.000000                       # BTB Hit Percentage
system.cpu0.branchPred.usedRAS                  45481                       # Number of times the RAS was used to get a target.
system.cpu0.branchPred.RASInCorrect              6764                       # Number of incorrect RAS predictions.
system.cpu0.branchPred.indirectLookups        1341819                       # Number of indirect predictor lookups.
system.cpu0.branchPred.indirectHits            701030                       # Number of indirect target hits.
system.cpu0.branchPred.indirectMisses          640789                       # Number of indirect misses.
system.cpu0.branchPredindirectMispredicted        25464                       # Number of mispredicted indirect branches.
system.cpu_voltage_domain.voltage                   1                       # Voltage in Volts
system.cpu_clk_domain.clock                       500                       # Clock period in ticks
system.cpu0.dtb.walker.pwrStateResidencyTicks::UNDEFINED  15267344125                       # Cumulative time (in ticks) in various power states
system.cpu0.dtb.rdAccesses                     833082                       # TLB accesses on read requests
system.cpu0.dtb.wrAccesses                      60854                       # TLB accesses on write requests
system.cpu0.dtb.rdMisses                       188026                       # TLB misses on read requests
system.cpu0.dtb.wrMisses                          996                       # TLB misses on write requests
system.cpu0.apic_clk_domain.clock                8000                       # Clock period in ticks
system.cpu0.interrupts.pwrStateResidencyTicks::UNDEFINED  15267344125                       # Cumulative time (in ticks) in various power states
system.cpu0.itb.walker.pwrStateResidencyTicks::UNDEFINED  15267344125                       # Cumulative time (in ticks) in various power states
system.cpu0.itb.rdAccesses                          0                       # TLB accesses on read requests
system.cpu0.itb.wrAccesses                    1363232                       # TLB accesses on write requests
system.cpu0.itb.rdMisses                            0                       # TLB misses on read requests
system.cpu0.itb.wrMisses                         4593                       # TLB misses on write requests
system.cpu0.workload.numSyscalls                    0                       # Number of system calls
system.cpu0.pwrStateResidencyTicks::ON    15267344125                       # Cumulative time (in ticks) in various power states
system.cpu0.numCycles                        30534688                       # number of cpu cycles simulated
system.cpu0.numWorkItemsStarted                     0                       # number of work items this cpu started
system.cpu0.numWorkItemsCompleted                   0                       # number of work items this cpu completed
system.cpu0.fetch.icacheStallCycles           1393826                       # Number of cycles fetch is stalled on an Icache miss
system.cpu0.fetch.Insts                       4789811                       # Number of instructions fetch has processed
system.cpu0.fetch.Branches                    1638408                       # Number of branches that fetch encountered
system.cpu0.fetch.predictedBranches            746511                       # Number of branches that fetch has predicted taken
system.cpu0.fetch.Cycles                     28985654                       # Number of cycles fetch has run and was not squashing or blocked
system.cpu0.fetch.SquashCycles                 136812                       # Number of cycles fetch has spent squashing
system.cpu0.fetch.TlbCycles                      1479                       # Number of cycles fetch has spent waiting for tlb
system.cpu0.fetch.MiscStallCycles                1073                       # Number of cycles fetch has spent waiting on interrupts, or bad addresses, or out of MSHRs
system.cpu0.fetch.PendingTrapStallCycles        40708                       # Number of stall cycles due to pending traps
system.cpu0.fetch.CacheLines                  1358639                       # Number of cache lines fetched
system.cpu0.fetch.IcacheSquashes                 9243                       # Number of outstanding Icache misses that were squashed
system.cpu0.fetch.ItlbSquashes                      3                       # Number of outstanding ITLB misses that were squashed
system.cpu0.fetch.rateDist::samples          30491146                       # Number of instructions fetched each cycle (Total)
system.cpu0.fetch.rateDist::mean             0.315994                       # Number of instructions fetched each cycle (Total)
system.cpu0.fetch.rateDist::stdev            1.410770                       # Number of instructions fetched each cycle (Total)
system.cpu0.fetch.rateDist::underflows              0      0.00%      0.00% # Number of instructions fetched each cycle (Total)
system.cpu0.fetch.rateDist::0                28612733     93.84%     93.84% # Number of instructions fetched each cycle (Total)
system.cpu0.fetch.rateDist::1                   27052      0.09%     93.93% # Number of instructions fetched each cycle (Total)
system.cpu0.fetch.rateDist::2                  680443      2.23%     96.16% # Number of instructions fetched each cycle (Total)
system.cpu0.fetch.rateDist::3                   30566      0.10%     96.26% # Number of instructions fetched each cycle (Total)
system.cpu0.fetch.rateDist::4                  137398      0.45%     96.71% # Number of instructions fetched each cycle (Total)
system.cpu0.fetch.rateDist::5                   64442      0.21%     96.92% # Number of instructions fetched each cycle (Total)
system.cpu0.fetch.rateDist::6                   99900      0.33%     97.25% # Number of instructions fetched each cycle (Total)
system.cpu0.fetch.rateDist::7                   24709      0.08%     97.33% # Number of instructions fetched each cycle (Total)
system.cpu0.fetch.rateDist::8                  813903      2.67%    100.00% # Number of instructions fetched each cycle (Total)
system.cpu0.fetch.rateDist::overflows               0      0.00%    100.00% # Number of instructions fetched each cycle (Total)
system.cpu0.fetch.rateDist::min_value               0                       # Number of instructions fetched each cycle (Total)
system.cpu0.fetch.rateDist::max_value               8                       # Number of instructions fetched each cycle (Total)
system.cpu0.fetch.rateDist::total            30491146                       # Number of instructions fetched each cycle (Total)
system.cpu0.fetch.branchRate                 0.053657                       # Number of branch fetches per cycle
system.cpu0.fetch.rate                       0.156865                       # Number of inst fetches per cycle
system.cpu0.decode.IdleCycles                  682457                       # Number of cycles decode is idle
system.cpu0.decode.BlockedCycles             28508860                       # Number of cycles decode is blocked
system.cpu0.decode.RunCycles                   871660                       # Number of cycles decode is running
system.cpu0.decode.UnblockCycles               359763                       # Number of cycles decode is unblocking
system.cpu0.decode.SquashCycles                 68406                       # Number of cycles decode is squashing
system.cpu0.decode.DecodedInsts               8101464                       # Number of instructions handled by decode
system.cpu0.rename.SquashCycles                 68406                       # Number of cycles rename is squashing
system.cpu0.rename.IdleCycles                  796089                       # Number of cycles rename is idle
system.cpu0.rename.BlockCycles               27120265                       # Number of cycles rename is blocking
system.cpu0.rename.serializeStallCycles         12051                       # count of cycles rename stalled for serializing inst
system.cpu0.rename.RunCycles                  1036182                       # Number of cycles rename is running
system.cpu0.rename.UnblockCycles              1458153                       # Number of cycles rename is unblocking
system.cpu0.rename.RenamedInsts               7788668                       # Number of instructions processed by rename
system.cpu0.rename.ROBFullEvents                50823                       # Number of times rename has blocked due to ROB full
system.cpu0.rename.IQFullEvents               1227135                       # Number of times rename has blocked due to IQ full
system.cpu0.rename.LQFullEvents                162645                       # Number of times rename has blocked due to LQ full
system.cpu0.rename.SQFullEvents                  3319                       # Number of times rename has blocked due to SQ full
system.cpu0.rename.RenamedOperands            9287937                       # Number of destination operands rename has renamed
system.cpu0.rename.RenameLookups             21614332                       # Number of register rename lookups that rename has made
system.cpu0.rename.int_rename_lookups        10227419                       # Number of integer rename lookups
system.cpu0.rename.fp_rename_lookups            38503                       # Number of floating rename lookups
system.cpu0.rename.CommittedMaps              3739227                       # Number of HB maps that are committed
system.cpu0.rename.UndoneMaps                 5548587                       # Number of HB maps that are undone due to squashing
system.cpu0.rename.serializingInsts               274                       # count of serializing insts renamed
system.cpu0.rename.tempSerializingInsts           337                       # count of temporary serializing insts renamed
system.cpu0.rename.skidInsts                  2278675                       # count of insts added to the skid buffer
system.cpu0.memDep0.insertedLoads             1374488                       # Number of loads inserted to the mem dependence unit.
system.cpu0.memDep0.insertedStores              90347                       # Number of stores inserted to the mem dependence unit.
system.cpu0.memDep0.conflictingLoads             6345                       # Number of conflicting loads.
system.cpu0.memDep0.conflictingStores            5805                       # Number of conflicting stores.
system.cpu0.iq.iqInstsAdded                   7385414                       # Number of instructions added to the IQ (excludes non-spec)
system.cpu0.iq.iqNonSpecInstsAdded               5938                       # Number of non-speculative instructions added to the IQ
system.cpu0.iq.iqInstsIssued                  5481722                       # Number of instructions issued
system.cpu0.iq.iqSquashedInstsIssued             8065                       # Number of squashed instructions issued
system.cpu0.iq.iqSquashedInstsExamined        4283757                       # Number of squashed instructions iterated over during squash; mainly for profiling
system.cpu0.iq.iqSquashedOperandsExamined      8781696                       # Number of squashed operands that are examined and possibly removed from graph
system.cpu0.iq.iqSquashedNonSpecRemoved          5938                       # Number of squashed non-spec instructions that were removed
system.cpu0.iq.issued_per_cycle::samples     30491146                       # Number of insts issued each cycle
system.cpu0.iq.issued_per_cycle::mean        0.179781                       # Number of insts issued each cycle
system.cpu0.iq.issued_per_cycle::stdev       0.764427                       # Number of insts issued each cycle
system.cpu0.iq.issued_per_cycle::underflows            0      0.00%      0.00% # Number of insts issued each cycle
system.cpu0.iq.issued_per_cycle::0           28176012     92.41%     92.41% # Number of insts issued each cycle
system.cpu0.iq.issued_per_cycle::1             962255      3.16%     95.56% # Number of insts issued each cycle
system.cpu0.iq.issued_per_cycle::2             493243      1.62%     97.18% # Number of insts issued each cycle
system.cpu0.iq.issued_per_cycle::3             336081      1.10%     98.28% # Number of insts issued each cycle
system.cpu0.iq.issued_per_cycle::4             295408      0.97%     99.25% # Number of insts issued each cycle
system.cpu0.iq.issued_per_cycle::5              98059      0.32%     99.57% # Number of insts issued each cycle
system.cpu0.iq.issued_per_cycle::6              78875      0.26%     99.83% # Number of insts issued each cycle
system.cpu0.iq.issued_per_cycle::7              30143      0.10%     99.93% # Number of insts issued each cycle
system.cpu0.iq.issued_per_cycle::8              21070      0.07%    100.00% # Number of insts issued each cycle
system.cpu0.iq.issued_per_cycle::overflows            0      0.00%    100.00% # Number of insts issued each cycle
system.cpu0.iq.issued_per_cycle::min_value            0                       # Number of insts issued each cycle
system.cpu0.iq.issued_per_cycle::max_value            8                       # Number of insts issued each cycle
system.cpu0.iq.issued_per_cycle::total       30491146                       # Number of insts issued each cycle
system.cpu0.iq.fu_full::No_OpClass                  0      0.00%      0.00% # attempts to use FU when none available
system.cpu0.iq.fu_full::IntAlu                  13366     69.82%     69.82% # attempts to use FU when none available
system.cpu0.iq.fu_full::IntMult                     0      0.00%     69.82% # attempts to use FU when none available
system.cpu0.iq.fu_full::IntDiv                      0      0.00%     69.82% # attempts to use FU when none available
system.cpu0.iq.fu_full::FloatAdd                 1257      6.57%     76.38% # attempts to use FU when none available
system.cpu0.iq.fu_full::FloatCmp                    0      0.00%     76.38% # attempts to use FU when none available
system.cpu0.iq.fu_full::FloatCvt                    0      0.00%     76.38% # attempts to use FU when none available
system.cpu0.iq.fu_full::FloatMult                   0      0.00%     76.38% # attempts to use FU when none available
system.cpu0.iq.fu_full::FloatMultAcc                0      0.00%     76.38% # attempts to use FU when none available
system.cpu0.iq.fu_full::FloatDiv                    0      0.00%     76.38% # attempts to use FU when none available
system.cpu0.iq.fu_full::FloatMisc                   0      0.00%     76.38% # attempts to use FU when none available
system.cpu0.iq.fu_full::FloatSqrt                   0      0.00%     76.38% # attempts to use FU when none available
system.cpu0.iq.fu_full::SimdAdd                     0      0.00%     76.38% # attempts to use FU when none available
system.cpu0.iq.fu_full::SimdAddAcc                  0      0.00%     76.38% # attempts to use FU when none available
system.cpu0.iq.fu_full::SimdAlu                     0      0.00%     76.38% # attempts to use FU when none available
system.cpu0.iq.fu_full::SimdCmp                     0      0.00%     76.38% # attempts to use FU when none available
system.cpu0.iq.fu_full::SimdCvt                     0      0.00%     76.38% # attempts to use FU when none available
system.cpu0.iq.fu_full::SimdMisc                    0      0.00%     76.38% # attempts to use FU when none available
system.cpu0.iq.fu_full::SimdMult                    0      0.00%     76.38% # attempts to use FU when none available
system.cpu0.iq.fu_full::SimdMultAcc                 0      0.00%     76.38% # attempts to use FU when none available
system.cpu0.iq.fu_full::SimdShift                   0      0.00%     76.38% # attempts to use FU when none available
system.cpu0.iq.fu_full::SimdShiftAcc                0      0.00%     76.38% # attempts to use FU when none available
system.cpu0.iq.fu_full::SimdSqrt                    0      0.00%     76.38% # attempts to use FU when none available
system.cpu0.iq.fu_full::SimdFloatAdd                0      0.00%     76.38% # attempts to use FU when none available
system.cpu0.iq.fu_full::SimdFloatAlu                0      0.00%     76.38% # attempts to use FU when none available
system.cpu0.iq.fu_full::SimdFloatCmp                0      0.00%     76.38% # attempts to use FU when none available
system.cpu0.iq.fu_full::SimdFloatCvt                0      0.00%     76.38% # attempts to use FU when none available
system.cpu0.iq.fu_full::SimdFloatDiv                0      0.00%     76.38% # attempts to use FU when none available
system.cpu0.iq.fu_full::SimdFloatMisc               0      0.00%     76.38% # attempts to use FU when none available
system.cpu0.iq.fu_full::SimdFloatMult               0      0.00%     76.38% # attempts to use FU when none available
system.cpu0.iq.fu_full::SimdFloatMultAcc            0      0.00%     76.38% # attempts to use FU when none available
system.cpu0.iq.fu_full::SimdFloatSqrt               0      0.00%     76.38% # attempts to use FU when none available
system.cpu0.iq.fu_full::MemRead                  4133     21.59%     97.97% # attempts to use FU when none available
system.cpu0.iq.fu_full::MemWrite                  316      1.65%     99.62% # attempts to use FU when none available
system.cpu0.iq.fu_full::FloatMemRead               64      0.33%     99.96% # attempts to use FU when none available
system.cpu0.iq.fu_full::FloatMemWrite               8      0.04%    100.00% # attempts to use FU when none available
system.cpu0.iq.fu_full::IprAccess                   0      0.00%    100.00% # attempts to use FU when none available
system.cpu0.iq.fu_full::InstPrefetch                0      0.00%    100.00% # attempts to use FU when none available
system.cpu0.iq.FU_type_0::No_OpClass            18839      0.34%      0.34% # Type of FU issued
system.cpu0.iq.FU_type_0::IntAlu              4497116     82.04%     82.38% # Type of FU issued
system.cpu0.iq.FU_type_0::IntMult                1456      0.03%     82.41% # Type of FU issued
system.cpu0.iq.FU_type_0::IntDiv                11683      0.21%     82.62% # Type of FU issued
system.cpu0.iq.FU_type_0::FloatAdd              15881      0.29%     82.91% # Type of FU issued
system.cpu0.iq.FU_type_0::FloatCmp                  0      0.00%     82.91% # Type of FU issued
system.cpu0.iq.FU_type_0::FloatCvt                  0      0.00%     82.91% # Type of FU issued
system.cpu0.iq.FU_type_0::FloatMult                 0      0.00%     82.91% # Type of FU issued
system.cpu0.iq.FU_type_0::FloatMultAcc              0      0.00%     82.91% # Type of FU issued
system.cpu0.iq.FU_type_0::FloatDiv                  0      0.00%     82.91% # Type of FU issued
system.cpu0.iq.FU_type_0::FloatMisc                 0      0.00%     82.91% # Type of FU issued
system.cpu0.iq.FU_type_0::FloatSqrt                 0      0.00%     82.91% # Type of FU issued
system.cpu0.iq.FU_type_0::SimdAdd                   0      0.00%     82.91% # Type of FU issued
system.cpu0.iq.FU_type_0::SimdAddAcc                0      0.00%     82.91% # Type of FU issued
system.cpu0.iq.FU_type_0::SimdAlu                   0      0.00%     82.91% # Type of FU issued
system.cpu0.iq.FU_type_0::SimdCmp                   0      0.00%     82.91% # Type of FU issued
system.cpu0.iq.FU_type_0::SimdCvt                   0      0.00%     82.91% # Type of FU issued
system.cpu0.iq.FU_type_0::SimdMisc                  0      0.00%     82.91% # Type of FU issued
system.cpu0.iq.FU_type_0::SimdMult                  0      0.00%     82.91% # Type of FU issued
system.cpu0.iq.FU_type_0::SimdMultAcc               0      0.00%     82.91% # Type of FU issued
system.cpu0.iq.FU_type_0::SimdShift                 0      0.00%     82.91% # Type of FU issued
system.cpu0.iq.FU_type_0::SimdShiftAcc              0      0.00%     82.91% # Type of FU issued
system.cpu0.iq.FU_type_0::SimdSqrt                  0      0.00%     82.91% # Type of FU issued
system.cpu0.iq.FU_type_0::SimdFloatAdd              0      0.00%     82.91% # Type of FU issued
system.cpu0.iq.FU_type_0::SimdFloatAlu              0      0.00%     82.91% # Type of FU issued
system.cpu0.iq.FU_type_0::SimdFloatCmp              0      0.00%     82.91% # Type of FU issued
system.cpu0.iq.FU_type_0::SimdFloatCvt              0      0.00%     82.91% # Type of FU issued
system.cpu0.iq.FU_type_0::SimdFloatDiv              0      0.00%     82.91% # Type of FU issued
system.cpu0.iq.FU_type_0::SimdFloatMisc             0      0.00%     82.91% # Type of FU issued
system.cpu0.iq.FU_type_0::SimdFloatMult             0      0.00%     82.91% # Type of FU issued
system.cpu0.iq.FU_type_0::SimdFloatMultAcc            0      0.00%     82.91% # Type of FU issued
system.cpu0.iq.FU_type_0::SimdFloatSqrt             0      0.00%     82.91% # Type of FU issued
system.cpu0.iq.FU_type_0::MemRead              868404     15.84%     98.75% # Type of FU issued
system.cpu0.iq.FU_type_0::MemWrite              65850      1.20%     99.95% # Type of FU issued
system.cpu0.iq.FU_type_0::FloatMemRead           2476      0.05%    100.00% # Type of FU issued
system.cpu0.iq.FU_type_0::FloatMemWrite            17      0.00%    100.00% # Type of FU issued
system.cpu0.iq.FU_type_0::IprAccess                 0      0.00%    100.00% # Type of FU issued
system.cpu0.iq.FU_type_0::InstPrefetch              0      0.00%    100.00% # Type of FU issued
system.cpu0.iq.FU_type_0::total               5481722                       # Type of FU issued
system.cpu0.iq.rate                          0.179524                       # Inst issue rate
system.cpu0.iq.fu_busy_cnt                      19144                       # FU busy when requested
system.cpu0.iq.fu_busy_rate                  0.003492                       # FU busy rate (busy events/executed inst)
system.cpu0.iq.int_inst_queue_reads          41443504                       # Number of integer instruction queue reads
system.cpu0.iq.int_inst_queue_writes         11645194                       # Number of integer instruction queue writes
system.cpu0.iq.int_inst_queue_wakeup_accesses      5262778                       # Number of integer instruction queue wakeup accesses
system.cpu0.iq.fp_inst_queue_reads              38293                       # Number of floating instruction queue reads
system.cpu0.iq.fp_inst_queue_writes             29916                       # Number of floating instruction queue writes
system.cpu0.iq.fp_inst_queue_wakeup_accesses        17445                       # Number of floating instruction queue wakeup accesses
system.cpu0.iq.vec_inst_queue_reads                 0                       # Number of vector instruction queue reads
system.cpu0.iq.vec_inst_queue_writes                0                       # Number of vector instruction queue writes
system.cpu0.iq.vec_inst_queue_wakeup_accesses            0                       # Number of vector instruction queue wakeup accesses
system.cpu0.iq.int_alu_accesses               5462320                       # Number of integer alu accesses
system.cpu0.iq.fp_alu_accesses                  19707                       # Number of floating point alu accesses
system.cpu0.iq.vec_alu_accesses                     0                       # Number of vector alu accesses
system.cpu0.iew.lsq.thread0.forwLoads            5350                       # Number of loads that had data forwarded from stores
system.cpu0.iew.lsq.thread0.invAddrLoads            0                       # Number of loads ignored due to an invalid address
system.cpu0.iew.lsq.thread0.squashedLoads       798880                       # Number of loads squashed
system.cpu0.iew.lsq.thread0.ignoredResponses          167                       # Number of memory responses ignored because the instruction is squashed
system.cpu0.iew.lsq.thread0.memOrderViolation            1                       # Number of memory ordering violations
system.cpu0.iew.lsq.thread0.squashedStores        56544                       # Number of stores squashed
system.cpu0.iew.lsq.thread0.invAddrSwpfs            0                       # Number of software prefetches ignored due to an invalid address
system.cpu0.iew.lsq.thread0.blockedLoads            0                       # Number of blocked loads due to partial load-store forwarding
system.cpu0.iew.lsq.thread0.rescheduledLoads           29                       # Number of loads that were rescheduled
system.cpu0.iew.lsq.thread0.cacheBlocked         1985                       # Number of times an access to memory failed due to the cache being blocked
system.cpu0.iew.iewIdleCycles                       0                       # Number of cycles IEW is idle
system.cpu0.iew.iewSquashCycles                 68406                       # Number of cycles IEW is squashing
system.cpu0.iew.iewBlockCycles               25242556                       # Number of cycles IEW is blocking
system.cpu0.iew.iewUnblockCycles               283597                       # Number of cycles IEW is unblocking
system.cpu0.iew.iewDispatchedInsts            7391352                       # Number of instructions dispatched to IQ
system.cpu0.iew.iewDispSquashedInsts             4307                       # Number of squashed instructions skipped by dispatch
system.cpu0.iew.iewDispLoadInsts              1374488                       # Number of dispatched load instructions
system.cpu0.iew.iewDispStoreInsts               90347                       # Number of dispatched store instructions
system.cpu0.iew.iewDispNonSpecInsts              2158                       # Number of dispatched non-speculative instructions
system.cpu0.iew.iewIQFullEvents                 19097                       # Number of times the IQ has become full, causing a stall
system.cpu0.iew.iewLSQFullEvents                41104                       # Number of times the LSQ has become full, causing a stall
system.cpu0.iew.memOrderViolationEvents             1                       # Number of memory order violations
system.cpu0.iew.predictedTakenIncorrect         34239                       # Number of branches that were predicted taken incorrectly
system.cpu0.iew.predictedNotTakenIncorrect        42646                       # Number of branches that were predicted not taken incorrectly
system.cpu0.iew.branchMispredicts               76885                       # Number of branch mispredicts detected at execute
system.cpu0.iew.iewExecutedInsts              5382029                       # Number of executed instructions
system.cpu0.iew.iewExecLoadInsts               832794                       # Number of load instructions executed
system.cpu0.iew.iewExecSquashedInsts            99691                       # Number of squashed instructions skipped in execute
system.cpu0.iew.exec_swp                            0                       # number of swp insts executed
system.cpu0.iew.exec_nop                            0                       # number of nop insts executed
system.cpu0.iew.exec_refs                      893632                       # number of memory reference insts executed
system.cpu0.iew.exec_branches                  682742                       # Number of branches executed
system.cpu0.iew.exec_stores                     60838                       # Number of stores executed
system.cpu0.iew.exec_rate                    0.176260                       # Inst execution rate
system.cpu0.iew.wb_sent                       5298503                       # cumulative count of insts sent to commit
system.cpu0.iew.wb_count                      5280223                       # cumulative count of insts written-back
system.cpu0.iew.wb_producers                  3801546                       # num instructions producing a value
system.cpu0.iew.wb_consumers                  6203006                       # num instructions consuming a value
system.cpu0.iew.wb_rate                      0.172925                       # insts written-back per cycle
system.cpu0.iew.wb_fanout                    0.612855                       # average fanout of values written-back
system.cpu0.commit.commitSquashedInsts        4284343                       # The number of squashed insts skipped by commit
system.cpu0.commit.branchMispredicts            68406                       # The number of times a branch was mispredicted
system.cpu0.commit.committed_per_cycle::samples     29884330                       # Number of insts commited each cycle
system.cpu0.commit.committed_per_cycle::mean     0.103984                       # Number of insts commited each cycle
system.cpu0.commit.committed_per_cycle::stdev     0.590971                       # Number of insts commited each cycle
system.cpu0.commit.committed_per_cycle::underflows            0      0.00%      0.00% # Number of insts commited each cycle
system.cpu0.commit.committed_per_cycle::0     28528767     95.46%     95.46% # Number of insts commited each cycle
system.cpu0.commit.committed_per_cycle::1       617412      2.07%     97.53% # Number of insts commited each cycle
system.cpu0.commit.committed_per_cycle::2       160641      0.54%     98.07% # Number of insts commited each cycle
system.cpu0.commit.committed_per_cycle::3       419727      1.40%     99.47% # Number of insts commited each cycle
system.cpu0.commit.committed_per_cycle::4        58156      0.19%     99.67% # Number of insts commited each cycle
system.cpu0.commit.committed_per_cycle::5        33633      0.11%     99.78% # Number of insts commited each cycle
system.cpu0.commit.committed_per_cycle::6         7267      0.02%     99.80% # Number of insts commited each cycle
system.cpu0.commit.committed_per_cycle::7         4589      0.02%     99.82% # Number of insts commited each cycle
system.cpu0.commit.committed_per_cycle::8        54138      0.18%    100.00% # Number of insts commited each cycle
system.cpu0.commit.committed_per_cycle::overflows            0      0.00%    100.00% # Number of insts commited each cycle
system.cpu0.commit.committed_per_cycle::min_value            0                       # Number of insts commited each cycle
system.cpu0.commit.committed_per_cycle::max_value            8                       # Number of insts commited each cycle
system.cpu0.commit.committed_per_cycle::total     29884330                       # Number of insts commited each cycle
system.cpu0.commit.committedInsts             1556587                       # Number of instructions committed
system.cpu0.commit.committedOps               3107493                       # Number of ops (including micro ops) committed
system.cpu0.commit.swp_count                        0                       # Number of s/w prefetches committed
system.cpu0.commit.refs                        609389                       # Number of memory references committed
system.cpu0.commit.loads                       575586                       # Number of loads committed
system.cpu0.commit.membars                          0                       # Number of memory barriers committed
system.cpu0.commit.branches                    556005                       # Number of branches committed
system.cpu0.commit.vec_insts                        0                       # Number of committed Vector instructions.
system.cpu0.commit.fp_insts                     13708                       # Number of committed floating point instructions.
system.cpu0.commit.int_insts                  3093687                       # Number of committed integer instructions.
system.cpu0.commit.function_calls                5975                       # Number of function calls committed.
system.cpu0.commit.op_class_0::No_OpClass         4138      0.13%      0.13% # Class of committed instruction
system.cpu0.commit.op_class_0::IntAlu         2471940     79.55%     79.68% # Class of committed instruction
system.cpu0.commit.op_class_0::IntMult            239      0.01%     79.69% # Class of committed instruction
system.cpu0.commit.op_class_0::IntDiv           10099      0.32%     80.01% # Class of committed instruction
system.cpu0.commit.op_class_0::FloatAdd         11688      0.38%     80.39% # Class of committed instruction
system.cpu0.commit.op_class_0::FloatCmp             0      0.00%     80.39% # Class of committed instruction
system.cpu0.commit.op_class_0::FloatCvt             0      0.00%     80.39% # Class of committed instruction
system.cpu0.commit.op_class_0::FloatMult            0      0.00%     80.39% # Class of committed instruction
system.cpu0.commit.op_class_0::FloatMultAcc            0      0.00%     80.39% # Class of committed instruction
system.cpu0.commit.op_class_0::FloatDiv             0      0.00%     80.39% # Class of committed instruction
system.cpu0.commit.op_class_0::FloatMisc            0      0.00%     80.39% # Class of committed instruction
system.cpu0.commit.op_class_0::FloatSqrt            0      0.00%     80.39% # Class of committed instruction
system.cpu0.commit.op_class_0::SimdAdd              0      0.00%     80.39% # Class of committed instruction
system.cpu0.commit.op_class_0::SimdAddAcc            0      0.00%     80.39% # Class of committed instruction
system.cpu0.commit.op_class_0::SimdAlu              0      0.00%     80.39% # Class of committed instruction
system.cpu0.commit.op_class_0::SimdCmp              0      0.00%     80.39% # Class of committed instruction
system.cpu0.commit.op_class_0::SimdCvt              0      0.00%     80.39% # Class of committed instruction
system.cpu0.commit.op_class_0::SimdMisc             0      0.00%     80.39% # Class of committed instruction
system.cpu0.commit.op_class_0::SimdMult             0      0.00%     80.39% # Class of committed instruction
system.cpu0.commit.op_class_0::SimdMultAcc            0      0.00%     80.39% # Class of committed instruction
system.cpu0.commit.op_class_0::SimdShift            0      0.00%     80.39% # Class of committed instruction
system.cpu0.commit.op_class_0::SimdShiftAcc            0      0.00%     80.39% # Class of committed instruction
system.cpu0.commit.op_class_0::SimdSqrt             0      0.00%     80.39% # Class of committed instruction
system.cpu0.commit.op_class_0::SimdFloatAdd            0      0.00%     80.39% # Class of committed instruction
system.cpu0.commit.op_class_0::SimdFloatAlu            0      0.00%     80.39% # Class of committed instruction
system.cpu0.commit.op_class_0::SimdFloatCmp            0      0.00%     80.39% # Class of committed instruction
system.cpu0.commit.op_class_0::SimdFloatCvt            0      0.00%     80.39% # Class of committed instruction
system.cpu0.commit.op_class_0::SimdFloatDiv            0      0.00%     80.39% # Class of committed instruction
system.cpu0.commit.op_class_0::SimdFloatMisc            0      0.00%     80.39% # Class of committed instruction
system.cpu0.commit.op_class_0::SimdFloatMult            0      0.00%     80.39% # Class of committed instruction
system.cpu0.commit.op_class_0::SimdFloatMultAcc            0      0.00%     80.39% # Class of committed instruction
system.cpu0.commit.op_class_0::SimdFloatSqrt            0      0.00%     80.39% # Class of committed instruction
system.cpu0.commit.op_class_0::MemRead         573566     18.46%     98.85% # Class of committed instruction
system.cpu0.commit.op_class_0::MemWrite         33803      1.09%     99.93% # Class of committed instruction
system.cpu0.commit.op_class_0::FloatMemRead         2020      0.07%    100.00% # Class of committed instruction
system.cpu0.commit.op_class_0::FloatMemWrite            0      0.00%    100.00% # Class of committed instruction
system.cpu0.commit.op_class_0::IprAccess            0      0.00%    100.00% # Class of committed instruction
system.cpu0.commit.op_class_0::InstPrefetch            0      0.00%    100.00% # Class of committed instruction
system.cpu0.commit.op_class_0::total          3107493                       # Class of committed instruction
system.cpu0.commit.bw_lim_events                54138                       # number cycles where commit BW limit reached
system.cpu0.rob.rob_reads                    37222028                       # The number of ROB reads
system.cpu0.rob.rob_writes                   15392401                       # The number of ROB writes
system.cpu0.timesIdled                            367                       # Number of times that the entire CPU went into an idle state and unscheduled itself
system.cpu0.idleCycles                          43542                       # Total number of cycles that the CPU has spent unscheduled due to idling
system.cpu0.committedInsts                    1556587                       # Number of Instructions Simulated
system.cpu0.committedOps                      3107493                       # Number of Ops (including micro ops) Simulated
system.cpu0.cpi                             19.616435                       # CPI: Cycles Per Instruction
system.cpu0.cpi_total                       19.616435                       # CPI: Total CPI of All Threads
system.cpu0.ipc                              0.050978                       # IPC: Instructions Per Cycle
system.cpu0.ipc_total                        0.050978                       # IPC: Total IPC of All Threads
system.cpu0.int_regfile_reads                 5577961                       # number of integer regfile reads
system.cpu0.int_regfile_writes                4545334                       # number of integer regfile writes
system.cpu0.fp_regfile_reads                    30718                       # number of floating regfile reads
system.cpu0.fp_regfile_writes                   15324                       # number of floating regfile writes
system.cpu0.cc_regfile_reads                  3612215                       # number of cc regfile reads
system.cpu0.cc_regfile_writes                 1544519                       # number of cc regfile writes
system.cpu0.misc_regfile_reads                2831773                       # number of misc regfile reads
system.cpu0.dcache.tags.pwrStateResidencyTicks::UNDEFINED  15267344125                       # Cumulative time (in ticks) in various power states
system.cpu0.dcache.tags.replacements           306095                       # number of replacements
system.cpu0.dcache.tags.tagsinuse                1024                       # Cycle average of tags in use
system.cpu0.dcache.tags.total_refs             328984                       # Total number of references to valid blocks.
system.cpu0.dcache.tags.sampled_refs           306095                       # Sample count of references to valid blocks.
system.cpu0.dcache.tags.avg_refs             1.074777                       # Average number of references to valid blocks.
system.cpu0.dcache.tags.warmup_cycle                0                       # Cycle when the warmup percentage was hit.
system.cpu0.dcache.tags.occ_blocks::cpu0.data         1024                       # Average occupied blocks per requestor
system.cpu0.dcache.tags.occ_percent::cpu0.data            1                       # Average percentage of cache occupancy
system.cpu0.dcache.tags.occ_percent::total            1                       # Average percentage of cache occupancy
system.cpu0.dcache.tags.occ_task_id_blocks::1024         1024                       # Occupied blocks per task id
system.cpu0.dcache.tags.age_task_id_blocks_1024::0          426                       # Occupied blocks per task id
system.cpu0.dcache.tags.age_task_id_blocks_1024::1          557                       # Occupied blocks per task id
system.cpu0.dcache.tags.age_task_id_blocks_1024::2           41                       # Occupied blocks per task id
system.cpu0.dcache.tags.occ_task_id_percent::1024            1                       # Percentage of cache occupancy per task id
system.cpu0.dcache.tags.tag_accesses          3729607                       # Number of tag accesses
system.cpu0.dcache.tags.data_accesses         3729607                       # Number of data accesses
system.cpu0.dcache.pwrStateResidencyTicks::UNDEFINED  15267344125                       # Cumulative time (in ticks) in various power states
system.cpu0.dcache.ReadReq_hits::cpu0.data       295159                       # number of ReadReq hits
system.cpu0.dcache.ReadReq_hits::total         295159                       # number of ReadReq hits
system.cpu0.dcache.WriteReq_hits::cpu0.data        32626                       # number of WriteReq hits
system.cpu0.dcache.WriteReq_hits::total         32626                       # number of WriteReq hits
system.cpu0.dcache.demand_hits::cpu0.data       327785                       # number of demand (read+write) hits
system.cpu0.dcache.demand_hits::total          327785                       # number of demand (read+write) hits
system.cpu0.dcache.overall_hits::cpu0.data       327785                       # number of overall hits
system.cpu0.dcache.overall_hits::total         327785                       # number of overall hits
system.cpu0.dcache.ReadReq_misses::cpu0.data       526916                       # number of ReadReq misses
system.cpu0.dcache.ReadReq_misses::total       526916                       # number of ReadReq misses
system.cpu0.dcache.WriteReq_misses::cpu0.data         1177                       # number of WriteReq misses
system.cpu0.dcache.WriteReq_misses::total         1177                       # number of WriteReq misses
system.cpu0.dcache.demand_misses::cpu0.data       528093                       # number of demand (read+write) misses
system.cpu0.dcache.demand_misses::total        528093                       # number of demand (read+write) misses
system.cpu0.dcache.overall_misses::cpu0.data       528093                       # number of overall misses
system.cpu0.dcache.overall_misses::total       528093                       # number of overall misses
system.cpu0.dcache.ReadReq_miss_latency::cpu0.data  33438398500                       # number of ReadReq miss cycles
system.cpu0.dcache.ReadReq_miss_latency::total  33438398500                       # number of ReadReq miss cycles
system.cpu0.dcache.WriteReq_miss_latency::cpu0.data     45224000                       # number of WriteReq miss cycles
system.cpu0.dcache.WriteReq_miss_latency::total     45224000                       # number of WriteReq miss cycles
system.cpu0.dcache.demand_miss_latency::cpu0.data  33483622500                       # number of demand (read+write) miss cycles
system.cpu0.dcache.demand_miss_latency::total  33483622500                       # number of demand (read+write) miss cycles
system.cpu0.dcache.overall_miss_latency::cpu0.data  33483622500                       # number of overall miss cycles
system.cpu0.dcache.overall_miss_latency::total  33483622500                       # number of overall miss cycles
system.cpu0.dcache.ReadReq_accesses::cpu0.data       822075                       # number of ReadReq accesses(hits+misses)
system.cpu0.dcache.ReadReq_accesses::total       822075                       # number of ReadReq accesses(hits+misses)
system.cpu0.dcache.WriteReq_accesses::cpu0.data        33803                       # number of WriteReq accesses(hits+misses)
system.cpu0.dcache.WriteReq_accesses::total        33803                       # number of WriteReq accesses(hits+misses)
system.cpu0.dcache.demand_accesses::cpu0.data       855878                       # number of demand (read+write) accesses
system.cpu0.dcache.demand_accesses::total       855878                       # number of demand (read+write) accesses
system.cpu0.dcache.overall_accesses::cpu0.data       855878                       # number of overall (read+write) accesses
system.cpu0.dcache.overall_accesses::total       855878                       # number of overall (read+write) accesses
system.cpu0.dcache.ReadReq_miss_rate::cpu0.data     0.640959                       # miss rate for ReadReq accesses
system.cpu0.dcache.ReadReq_miss_rate::total     0.640959                       # miss rate for ReadReq accesses
system.cpu0.dcache.WriteReq_miss_rate::cpu0.data     0.034819                       # miss rate for WriteReq accesses
system.cpu0.dcache.WriteReq_miss_rate::total     0.034819                       # miss rate for WriteReq accesses
system.cpu0.dcache.demand_miss_rate::cpu0.data     0.617019                       # miss rate for demand accesses
system.cpu0.dcache.demand_miss_rate::total     0.617019                       # miss rate for demand accesses
system.cpu0.dcache.overall_miss_rate::cpu0.data     0.617019                       # miss rate for overall accesses
system.cpu0.dcache.overall_miss_rate::total     0.617019                       # miss rate for overall accesses
system.cpu0.dcache.ReadReq_avg_miss_latency::cpu0.data 63460.586697                       # average ReadReq miss latency
system.cpu0.dcache.ReadReq_avg_miss_latency::total 63460.586697                       # average ReadReq miss latency
system.cpu0.dcache.WriteReq_avg_miss_latency::cpu0.data 38423.109601                       # average WriteReq miss latency
system.cpu0.dcache.WriteReq_avg_miss_latency::total 38423.109601                       # average WriteReq miss latency
system.cpu0.dcache.demand_avg_miss_latency::cpu0.data 63404.783816                       # average overall miss latency
system.cpu0.dcache.demand_avg_miss_latency::total 63404.783816                       # average overall miss latency
[...]
system.l2.ReadSharedReq_hits::cpu0.data        126095                       # number of ReadSharedReq hits
system.l2.ReadSharedReq_hits::total            126095                       # number of ReadSharedReq hits
system.l2.demand_hits::cpu0.data               126954                       # number of demand (read+write) hits
system.l2.demand_hits::total                   126954                       # number of demand (read+write) hits
system.l2.overall_hits::cpu0.data              126954                       # number of overall hits
system.l2.overall_hits::total                  126954                       # number of overall hits
system.l2.ReadExReq_misses::cpu0.data             314                       # number of ReadExReq misses
system.l2.ReadExReq_misses::total                 314                       # number of ReadExReq misses
system.l2.ReadSharedReq_misses::cpu0.data       178829                       # number of ReadSharedReq misses
system.l2.ReadSharedReq_misses::total          178829                       # number of ReadSharedReq misses
system.l2.demand_misses::cpu0.data             179143                       # number of demand (read+write) misses
system.l2.demand_misses::total                 179143                       # number of demand (read+write) misses
system.l2.overall_misses::cpu0.data            179143                       # number of overall misses
system.l2.overall_misses::total                179143                       # number of overall misses
system.l2.ReadExReq_miss_latency::cpu0.data     32836000                       # number of ReadExReq miss cycles
system.l2.ReadExReq_miss_latency::total      32836000                       # number of ReadExReq miss cycles
system.l2.ReadSharedReq_miss_latency::cpu0.data  17049842500                       # number of ReadSharedReq miss cycles
system.l2.ReadSharedReq_miss_latency::total  17049842500                       # number of ReadSharedReq miss cycles
system.l2.demand_miss_latency::cpu0.data  17082678500                       # number of demand (read+write) miss cycles
system.l2.demand_miss_latency::total      17082678500                       # number of demand (read+write) miss cycles
system.l2.overall_miss_latency::cpu0.data  17082678500                       # number of overall miss cycles
system.l2.overall_miss_latency::total     17082678500                       # number of overall miss cycles
system.l2.WritebackDirty_accesses::writebacks         3348                       # number of WritebackDirty accesses(hits+misses)
system.l2.WritebackDirty_accesses::total         3348                       # number of WritebackDirty accesses(hits+misses)
system.l2.ReadExReq_accesses::cpu0.data          1173                       # number of ReadExReq accesses(hits+misses)
system.l2.ReadExReq_accesses::total              1173                       # number of ReadExReq accesses(hits+misses)
system.l2.ReadSharedReq_accesses::cpu0.data       304924                       # number of ReadSharedReq accesses(hits+misses)
system.l2.ReadSharedReq_accesses::total        304924                       # number of ReadSharedReq accesses(hits+misses)
system.l2.demand_accesses::cpu0.data           306097                       # number of demand (read+write) accesses
system.l2.demand_accesses::total               306097                       # number of demand (read+write) accesses
system.l2.overall_accesses::cpu0.data          306097                       # number of overall (read+write) accesses
system.l2.overall_accesses::total              306097                       # number of overall (read+write) accesses
system.l2.ReadExReq_miss_rate::cpu0.data     0.267690                       # miss rate for ReadExReq accesses
system.l2.ReadExReq_miss_rate::total         0.267690                       # miss rate for ReadExReq accesses
system.l2.ReadSharedReq_miss_rate::cpu0.data     0.586471                       # miss rate for ReadSharedReq accesses
system.l2.ReadSharedReq_miss_rate::total     0.586471                       # miss rate for ReadSharedReq accesses
system.l2.demand_miss_rate::cpu0.data        0.585249                       # miss rate for demand accesses
system.l2.demand_miss_rate::total            0.585249                       # miss rate for demand accesses
system.l2.overall_miss_rate::cpu0.data       0.585249                       # miss rate for overall accesses
system.l2.overall_miss_rate::total           0.585249                       # miss rate for overall accesses
system.l2.ReadExReq_avg_miss_latency::cpu0.data 104573.248408                       # average ReadExReq miss latency
system.l2.ReadExReq_avg_miss_latency::total 104573.248408                       # average ReadExReq miss latency
system.l2.ReadSharedReq_avg_miss_latency::cpu0.data 95341.597280                       # average ReadSharedReq miss latency
system.l2.ReadSharedReq_avg_miss_latency::total 95341.597280                       # average ReadSharedReq miss latency
system.l2.demand_avg_miss_latency::cpu0.data 95357.778423                       # average overall miss latency
system.l2.demand_avg_miss_latency::total 95357.778423                       # average overall miss latency
system.l2.overall_avg_miss_latency::cpu0.data 95357.778423                       # average overall miss latency
system.l2.overall_avg_miss_latency::total 95357.778423                       # average overall miss latency
system.l2.blocked_cycles::no_mshrs                  0                       # number of cycles access was blocked
system.l2.blocked_cycles::no_targets                0                       # number of cycles access was blocked
system.l2.blocked::no_mshrs                         0                       # number of cycles access was blocked
system.l2.blocked::no_targets                       0                       # number of cycles access was blocked
system.l2.avg_blocked_cycles::no_mshrs            nan                       # average number of cycles each access was blocked
system.l2.avg_blocked_cycles::no_targets          nan                       # average number of cycles each access was blocked
system.l2.writebacks::writebacks                  430                       # number of writebacks
system.l2.writebacks::total                       430                       # number of writebacks
system.l2.ReadExReq_mshr_misses::cpu0.data          314                       # number of ReadExReq MSHR misses
system.l2.ReadExReq_mshr_misses::total            314                       # number of ReadExReq MSHR misses
system.l2.ReadSharedReq_mshr_misses::cpu0.data       178829                       # number of ReadSharedReq MSHR misses
system.l2.ReadSharedReq_mshr_misses::total       178829                       # number of ReadSharedReq MSHR misses
system.l2.demand_mshr_misses::cpu0.data        179143                       # number of demand (read+write) MSHR misses
system.l2.demand_mshr_misses::total            179143                       # number of demand (read+write) MSHR misses
system.l2.overall_mshr_misses::cpu0.data       179143                       # number of overall MSHR misses
system.l2.overall_mshr_misses::total           179143                       # number of overall MSHR misses
system.l2.ReadExReq_mshr_miss_latency::cpu0.data     29696000                       # number of ReadExReq MSHR miss cycles
system.l2.ReadExReq_mshr_miss_latency::total     29696000                       # number of ReadExReq MSHR miss cycles
system.l2.ReadSharedReq_mshr_miss_latency::cpu0.data  15261562500                       # number of ReadSharedReq MSHR miss cycles
system.l2.ReadSharedReq_mshr_miss_latency::total  15261562500                       # number of ReadSharedReq MSHR miss cycles
system.l2.demand_mshr_miss_latency::cpu0.data  15291258500                       # number of demand (read+write) MSHR miss cycles
system.l2.demand_mshr_miss_latency::total  15291258500                       # number of demand (read+write) MSHR miss cycles
system.l2.overall_mshr_miss_latency::cpu0.data  15291258500                       # number of overall MSHR miss cycles
system.l2.overall_mshr_miss_latency::total  15291258500                       # number of overall MSHR miss cycles
system.l2.ReadExReq_mshr_miss_rate::cpu0.data     0.267690                       # mshr miss rate for ReadExReq accesses
system.l2.ReadExReq_mshr_miss_rate::total     0.267690                       # mshr miss rate for ReadExReq accesses
system.l2.ReadSharedReq_mshr_miss_rate::cpu0.data     0.586471                       # mshr miss rate for ReadSharedReq accesses
system.l2.ReadSharedReq_mshr_miss_rate::total     0.586471                       # mshr miss rate for ReadSharedReq accesses
system.l2.demand_mshr_miss_rate::cpu0.data     0.585249                       # mshr miss rate for demand accesses
system.l2.demand_mshr_miss_rate::total       0.585249                       # mshr miss rate for demand accesses
system.l2.overall_mshr_miss_rate::cpu0.data     0.585249                       # mshr miss rate for overall accesses
system.l2.overall_mshr_miss_rate::total      0.585249                       # mshr miss rate for overall accesses
system.l2.ReadExReq_avg_mshr_miss_latency::cpu0.data 94573.248408                       # average ReadExReq mshr miss latency
system.l2.ReadExReq_avg_mshr_miss_latency::total 94573.248408                       # average ReadExReq mshr miss latency
system.l2.ReadSharedReq_avg_mshr_miss_latency::cpu0.data 85341.653199                       # average ReadSharedReq mshr miss latency
system.l2.ReadSharedReq_avg_mshr_miss_latency::total 85341.653199                       # average ReadSharedReq mshr miss latency
system.l2.demand_avg_mshr_miss_latency::cpu0.data 85357.834244                       # average overall mshr miss latency
system.l2.demand_avg_mshr_miss_latency::total 85357.834244                       # average overall mshr miss latency
system.l2.overall_avg_mshr_miss_latency::cpu0.data 85357.834244                       # average overall mshr miss latency
system.l2.overall_avg_mshr_miss_latency::total 85357.834244                       # average overall mshr miss latency
system.membus.snoop_filter.tot_requests        358284                       # Total number of requests made to the snoop filter.
system.membus.snoop_filter.hit_single_requests       179143                       # Number of requests hitting in the snoop filter with a single holder of the requested data.
system.membus.snoop_filter.hit_multi_requests            0                       # Number of requests hitting in the snoop filter with multiple (>1) holders of the requested data.
system.membus.snoop_filter.tot_snoops               0                       # Total number of snoops made to the snoop filter.
system.membus.snoop_filter.hit_single_snoops            0                       # Number of snoops hitting in the snoop filter with a single holder of the requested data.
system.membus.snoop_filter.hit_multi_snoops            0                       # Number of snoops hitting in the snoop filter with multiple (>1) holders of the requested data.
system.membus.pwrStateResidencyTicks::UNDEFINED  15267344125                       # Cumulative time (in ticks) in various power states
system.membus.trans_dist::ReadResp             178828                       # Transaction distribution
system.membus.trans_dist::WritebackDirty          430                       # Transaction distribution
system.membus.trans_dist::CleanEvict           178711                       # Transaction distribution
system.membus.trans_dist::ReadExReq               314                       # Transaction distribution
system.membus.trans_dist::ReadExResp              314                       # Transaction distribution
system.membus.trans_dist::ReadSharedReq        178829                       # Transaction distribution
system.membus.pkt_count_system.l2.mem_side::system.mem_ctrls.port       537426                       # Packet count per connected master and slave (bytes)
system.membus.pkt_count_system.l2.mem_side::total       537426                       # Packet count per connected master and slave (bytes)
system.membus.pkt_count::total                 537426                       # Packet count per connected master and slave (bytes)
system.membus.pkt_size_system.l2.mem_side::system.mem_ctrls.port     11492608                       # Cumulative packet size per connected master and slave (bytes)
system.membus.pkt_size_system.l2.mem_side::total     11492608                       # Cumulative packet size per connected master and slave (bytes)
system.membus.pkt_size::total                11492608                       # Cumulative packet size per connected master and slave (bytes)
system.membus.snoops                                0                       # Total snoops (count)
system.membus.snoopTraffic                          0                       # Total snoop traffic (bytes)
system.membus.snoop_fanout::samples            179143                       # Request fanout histogram
system.membus.snoop_fanout::mean                    0                       # Request fanout histogram
system.membus.snoop_fanout::stdev                   0                       # Request fanout histogram
system.membus.snoop_fanout::underflows              0      0.00%      0.00% # Request fanout histogram
system.membus.snoop_fanout::0                  179143    100.00%    100.00% # Request fanout histogram
system.membus.snoop_fanout::1                       0      0.00%    100.00% # Request fanout histogram
system.membus.snoop_fanout::overflows               0      0.00%    100.00% # Request fanout histogram
system.membus.snoop_fanout::min_value               0                       # Request fanout histogram
system.membus.snoop_fanout::max_value               0                       # Request fanout histogram
system.membus.snoop_fanout::total              179143                       # Request fanout histogram
system.membus.reqLayer8.occupancy           422474500                       # Layer occupancy (ticks)
system.membus.reqLayer8.utilization               2.8                       # Layer utilization (%)
system.membus.respLayer1.occupancy          971473500                       # Layer occupancy (ticks)
system.membus.respLayer1.utilization              6.4                       # Layer utilization (%)
system.tol2bus.snoop_filter.tot_requests       612192                       # Total number of requests made to the snoop filter.
system.tol2bus.snoop_filter.hit_single_requests       306097                       # Number of requests hitting in the snoop filter with a single holder of the requested data.
system.tol2bus.snoop_filter.hit_multi_requests          442                       # Number of requests hitting in the snoop filter with multiple (>1) holders of the requested data.
system.tol2bus.snoop_filter.tot_snoops              1                       # Total number of snoops made to the snoop filter.
system.tol2bus.snoop_filter.hit_single_snoops            1                       # Number of snoops hitting in the snoop filter with a single holder of the requested data.
system.tol2bus.snoop_filter.hit_multi_snoops            0                       # Number of snoops hitting in the snoop filter with multiple (>1) holders of the requested data.
system.tol2bus.pwrStateResidencyTicks::UNDEFINED  15267344125                       # Cumulative time (in ticks) in various power states
system.tol2bus.trans_dist::ReadResp            304922                       # Transaction distribution
system.tol2bus.trans_dist::WritebackDirty         3778                       # Transaction distribution
system.tol2bus.trans_dist::CleanEvict          481459                       # Transaction distribution
system.tol2bus.trans_dist::ReadExReq             1173                       # Transaction distribution
system.tol2bus.trans_dist::ReadExResp            1173                       # Transaction distribution
system.tol2bus.trans_dist::ReadSharedReq       304924                       # Transaction distribution
system.tol2bus.pkt_count_system.cpu0.dcache.mem_side::system.l2.cpu_side       918287                       # Packet count per connected master and slave (bytes)
system.tol2bus.pkt_count::total                918287                       # Packet count per connected master and slave (bytes)
system.tol2bus.pkt_size_system.cpu0.dcache.mem_side::system.l2.cpu_side     19804352                       # Cumulative packet size per connected master and slave (bytes)
system.tol2bus.pkt_size::total               19804352                       # Cumulative packet size per connected master and slave (bytes)
system.tol2bus.snoops                          179142                       # Total snoops (count)
system.tol2bus.snoopTraffic                     27520                       # Total snoop traffic (bytes)
system.tol2bus.snoop_fanout::samples           485239                       # Request fanout histogram
system.tol2bus.snoop_fanout::mean            0.000917                       # Request fanout histogram
system.tol2bus.snoop_fanout::stdev           0.030269                       # Request fanout histogram
system.tol2bus.snoop_fanout::underflows             0      0.00%      0.00% # Request fanout histogram
system.tol2bus.snoop_fanout::0                 484794     99.91%     99.91% # Request fanout histogram
system.tol2bus.snoop_fanout::1                    445      0.09%    100.00% # Request fanout histogram
system.tol2bus.snoop_fanout::2                      0      0.00%    100.00% # Request fanout histogram
system.tol2bus.snoop_fanout::3                      0      0.00%    100.00% # Request fanout histogram
system.tol2bus.snoop_fanout::4                      0      0.00%    100.00% # Request fanout histogram
system.tol2bus.snoop_fanout::5                      0      0.00%    100.00% # Request fanout histogram
system.tol2bus.snoop_fanout::6                      0      0.00%    100.00% # Request fanout histogram
system.tol2bus.snoop_fanout::7                      0      0.00%    100.00% # Request fanout histogram
system.tol2bus.snoop_fanout::8                      0      0.00%    100.00% # Request fanout histogram
system.tol2bus.snoop_fanout::9                      0      0.00%    100.00% # Request fanout histogram
system.tol2bus.snoop_fanout::10                     0      0.00%    100.00% # Request fanout histogram
system.tol2bus.snoop_fanout::11                     0      0.00%    100.00% # Request fanout histogram
system.tol2bus.snoop_fanout::12                     0      0.00%    100.00% # Request fanout histogram
system.tol2bus.snoop_fanout::13                     0      0.00%    100.00% # Request fanout histogram
system.tol2bus.snoop_fanout::14                     0      0.00%    100.00% # Request fanout histogram
system.tol2bus.snoop_fanout::15                     0      0.00%    100.00% # Request fanout histogram
system.tol2bus.snoop_fanout::16                     0      0.00%    100.00% # Request fanout histogram
system.tol2bus.snoop_fanout::overflows              0      0.00%    100.00% # Request fanout histogram
system.tol2bus.snoop_fanout::min_value              0                       # Request fanout histogram
system.tol2bus.snoop_fanout::max_value              1                       # Request fanout histogram
system.tol2bus.snoop_fanout::total             485239                       # Request fanout histogram
system.tol2bus.reqLayer0.occupancy          309444000                       # Layer occupancy (ticks)
system.tol2bus.reqLayer0.utilization              2.0                       # Layer utilization (%)
system.tol2bus.respLayer1.occupancy         459142500                       # Layer occupancy (ticks)
system.tol2bus.respLayer1.utilization             3.0                       # Layer utilization (%)

---------- End Simulation Statistics   ----------
