
---------- Begin Simulation Statistics ----------
sim_seconds                                  0.015267                       # Number of seconds simulated
sim_ticks                                 15267344125                       # Number of ticks simulated
final_tick                               6855037512125                       # Number of ticks from beginning of simulation (restored from checkpoints and never reset)
sim_freq                                 1000000000000                       # Frequency of simulated ticks
host_inst_rate                               74294094                       # Simulator instruction rate (inst/s)
host_op_rate                                138416505                       # Simulator op (including micro ops) rate (op/s)
host_tick_rate                              189117049                       # Simulator tick rate (ticks/s)
host_mem_usage                                2332684                       # Number of bytes of host memory used
host_seconds                                    80.73                       # Real time elapsed on the host
sim_insts                                  5997729208                       # Number of instructions simulated
sim_ops                                   11174305496                       # Number of ops (including micro ops) simulated
system.voltage_domain.voltage                       1                       # Voltage in Volts
system.clk_domain.clock                          1000                       # Clock period in ticks
system.mem_ctrls.pwrStateResidencyTicks::UNDEFINED  15267344125                       # Cumulative time (in ticks) in various power states
system.mem_ctrls.bytes_read::cpu0.data       12100928                       # Number of bytes read from this memory
system.mem_ctrls.bytes_read::total           12100928                       # Number of bytes read from this memory
system.mem_ctrls.bytes_written::writebacks        20480                       # Number of bytes written to this memory
system.mem_ctrls.bytes_written::total           20480                       # Number of bytes written to this memory
system.mem_ctrls.num_reads::cpu0.data          189077                       # Number of read requests responded to by this memory
system.mem_ctrls.num_reads::total              189077                       # Number of read requests responded to by this memory
system.mem_ctrls.num_writes::writebacks           320                       # Number of write requests responded to by this memory
system.mem_ctrls.num_writes::total                320                       # Number of write requests responded to by this memory
system.mem_ctrls.bw_read::cpu0.data         792602034                       # Total read bandwidth from this memory (bytes/s)
system.mem_ctrls.bw_read::total             792602034                       # Total read bandwidth from this memory (bytes/s)
system.mem_ctrls.bw_write::writebacks         1341425                       # Write bandwidth from this memory (bytes/s)
system.mem_ctrls.bw_write::total              1341425                       # Write bandwidth from this memory (bytes/s)
system.mem_ctrls.bw_total::writebacks         1341425                       # Total bandwidth to/from this memory (bytes/s)
system.mem_ctrls.bw_total::cpu0.data        792602034                       # Total bandwidth to/from this memory (bytes/s)
system.mem_ctrls.bw_total::total            793943459                       # Total bandwidth to/from this memory (bytes/s)
system.mem_ctrls.readReqs                      189078                       # Number of read requests accepted
system.mem_ctrls.writeReqs                        320                       # Number of write requests accepted
system.mem_ctrls.readBursts                    189078                       # Number of DRAM read bursts, including those serviced by the write queue
system.mem_ctrls.writeBursts                      320                       # Number of DRAM write bursts, including those merged in the write queue
system.mem_ctrls.bytesReadDRAM               12097344                       # Total number of bytes read from DRAM
system.mem_ctrls.bytesReadWrQ                    3584                       # Total number of bytes read from write queue
system.mem_ctrls.bytesWritten                   20608                       # Total number of bytes written to DRAM
system.mem_ctrls.bytesReadSys                12100992                       # Total read bytes from the system interface side
system.mem_ctrls.bytesWrittenSys                20480                       # Total written bytes from the system interface side
system.mem_ctrls.servicedByWrQ                     56                       # Number of DRAM read bursts serviced by the write queue
system.mem_ctrls.mergedWrBursts                     0                       # Number of DRAM write bursts merged with an existing one
system.mem_ctrls.neitherReadNorWriteReqs            0                       # Number of requests that are neither read nor write
system.mem_ctrls.perBankRdBursts::0             11896                       # Per bank write bursts
system.mem_ctrls.perBankRdBursts::1             11611                       # Per bank write bursts
system.mem_ctrls.perBankRdBursts::2             11737                       # Per bank write bursts
system.mem_ctrls.perBankRdBursts::3             11872                       # Per bank write bursts
system.mem_ctrls.perBankRdBursts::4             11702                       # Per bank write bursts
system.mem_ctrls.perBankRdBursts::5             11957                       # Per bank write bursts
system.mem_ctrls.perBankRdBursts::6             11535                       # Per bank write bursts
system.mem_ctrls.perBankRdBursts::7             11871                       # Per bank write bursts
system.mem_ctrls.perBankRdBursts::8             11702                       # Per bank write bursts
system.mem_ctrls.perBankRdBursts::9             11819                       # Per bank write bursts
system.mem_ctrls.perBankRdBursts::10            11661                       # Per bank write bursts
system.mem_ctrls.perBankRdBursts::11            11892                       # Per bank write bursts
system.mem_ctrls.perBankRdBursts::12            12288                       # Per bank write bursts
system.mem_ctrls.perBankRdBursts::13            11874                       # Per bank write bursts
system.mem_ctrls.perBankRdBursts::14            11960                       # Per bank write bursts
system.mem_ctrls.perBankRdBursts::15            11644                       # Per bank write bursts
system.mem_ctrls.perBankWrBursts::0                 0                       # Per bank write bursts
system.mem_ctrls.perBankWrBursts::1                 0                       # Per bank write bursts
system.mem_ctrls.perBankWrBursts::2                10                       # Per bank write bursts
system.mem_ctrls.perBankWrBursts::3                 0                       # Per bank write bursts
system.mem_ctrls.perBankWrBursts::4                 0                       # Per bank write bursts
system.mem_ctrls.perBankWrBursts::5                 0                       # Per bank write bursts
system.mem_ctrls.perBankWrBursts::6                 0                       # Per bank write bursts
system.mem_ctrls.perBankWrBursts::7                 0                       # Per bank write bursts
system.mem_ctrls.perBankWrBursts::8                 0                       # Per bank write bursts
system.mem_ctrls.perBankWrBursts::9                55                       # Per bank write bursts
system.mem_ctrls.perBankWrBursts::10              147                       # Per bank write bursts
system.mem_ctrls.perBankWrBursts::11               34                       # Per bank write bursts
system.mem_ctrls.perBankWrBursts::12               76                       # Per bank write bursts
system.mem_ctrls.perBankWrBursts::13                0                       # Per bank write bursts
system.mem_ctrls.perBankWrBursts::14                0                       # Per bank write bursts
system.mem_ctrls.perBankWrBursts::15                0                       # Per bank write bursts
system.mem_ctrls.numRdRetry                         0                       # Number of times read queue was full causing retry
system.mem_ctrls.numWrRetry                         0                       # Number of times write queue was full causing retry
system.mem_ctrls.totGap                   15267293000                       # Total gap between requests
system.mem_ctrls.readPktSize::0                     0                       # Read request sizes (log2)
system.mem_ctrls.readPktSize::1                     0                       # Read request sizes (log2)
system.mem_ctrls.readPktSize::2                     0                       # Read request sizes (log2)
system.mem_ctrls.readPktSize::3                     0                       # Read request sizes (log2)
system.mem_ctrls.readPktSize::4                     0                       # Read request sizes (log2)
system.mem_ctrls.readPktSize::5                     0                       # Read request sizes (log2)
system.mem_ctrls.readPktSize::6                189078                       # Read request sizes (log2)
system.mem_ctrls.writePktSize::0                    0                       # Write request sizes (log2)
system.mem_ctrls.writePktSize::1                    0                       # Write request sizes (log2)
system.mem_ctrls.writePktSize::2                    0                       # Write request sizes (log2)
system.mem_ctrls.writePktSize::3                    0                       # Write request sizes (log2)
system.mem_ctrls.writePktSize::4                    0                       # Write request sizes (log2)
system.mem_ctrls.writePktSize::5                    0                       # Write request sizes (log2)
system.mem_ctrls.writePktSize::6                  320                       # Write request sizes (log2)
system.mem_ctrls.rdQLenPdf::0                  143362                       # What read queue length does an incoming req see
system.mem_ctrls.rdQLenPdf::1                   42616                       # What read queue length does an incoming req see
system.mem_ctrls.rdQLenPdf::2                    2973                       # What read queue length does an incoming req see
system.mem_ctrls.rdQLenPdf::3                      71                       # What read queue length does an incoming req see
system.mem_ctrls.rdQLenPdf::4                       0                       # What read queue length does an incoming req see
system.mem_ctrls.rdQLenPdf::5                       0                       # What read queue length does an incoming req see
system.mem_ctrls.rdQLenPdf::6                       0                       # What read queue length does an incoming req see
system.mem_ctrls.rdQLenPdf::7                       0                       # What read queue length does an incoming req see
system.mem_ctrls.rdQLenPdf::8                       0                       # What read queue length does an incoming req see
system.mem_ctrls.rdQLenPdf::9                       0                       # What read queue length does an incoming req see
system.mem_ctrls.rdQLenPdf::10                      0                       # What read queue length does an incoming req see
system.mem_ctrls.rdQLenPdf::11                      0                       # What read queue length does an incoming req see
system.mem_ctrls.rdQLenPdf::12                      0                       # What read queue length does an incoming req see
system.mem_ctrls.rdQLenPdf::13                      0                       # What read queue length does an incoming req see
system.mem_ctrls.rdQLenPdf::14                      0                       # What read queue length does an incoming req see
system.mem_ctrls.rdQLenPdf::15                      0                       # What read queue length does an incoming req see
system.mem_ctrls.rdQLenPdf::16                      0                       # What read queue length does an incoming req see
system.mem_ctrls.rdQLenPdf::17                      0                       # What read queue length does an incoming req see
system.mem_ctrls.rdQLenPdf::18                      0                       # What read queue length does an incoming req see
system.mem_ctrls.rdQLenPdf::19                      0                       # What read queue length does an incoming req see
system.mem_ctrls.rdQLenPdf::20                      0                       # What read queue length does an incoming req see
system.mem_ctrls.rdQLenPdf::21                      0                       # What read queue length does an incoming req see
system.mem_ctrls.rdQLenPdf::22                      0                       # What read queue length does an incoming req see
system.mem_ctrls.rdQLenPdf::23                      0                       # What read queue length does an incoming req see
system.mem_ctrls.rdQLenPdf::24                      0                       # What read queue length does an incoming req see
system.mem_ctrls.rdQLenPdf::25                      0                       # What read queue length does an incoming req see
system.mem_ctrls.rdQLenPdf::26                      0                       # What read queue length does an incoming req see
system.mem_ctrls.rdQLenPdf::27                      0                       # What read queue length does an incoming req see
system.mem_ctrls.rdQLenPdf::28                      0                       # What read queue length does an incoming req see
system.mem_ctrls.rdQLenPdf::29                      0                       # What read queue length does an incoming req see
system.mem_ctrls.rdQLenPdf::30                      0                       # What read queue length does an incoming req see
system.mem_ctrls.rdQLenPdf::31                      0                       # What read queue length does an incoming req see
system.mem_ctrls.wrQLenPdf::0                       0                       # What write queue length does an incoming req see
system.mem_ctrls.wrQLenPdf::1                       0                       # What write queue length does an incoming req see
system.mem_ctrls.wrQLenPdf::2                       0                       # What write queue length does an incoming req see
system.mem_ctrls.wrQLenPdf::3                       0                       # What write queue length does an incoming req see
system.mem_ctrls.wrQLenPdf::4                       0                       # What write queue length does an incoming req see
system.mem_ctrls.wrQLenPdf::5                       0                       # What write queue length does an incoming req see
system.mem_ctrls.wrQLenPdf::6                       0                       # What write queue length does an incoming req see
system.mem_ctrls.wrQLenPdf::7                       0                       # What write queue length does an incoming req see
system.mem_ctrls.wrQLenPdf::8                       0                       # What write queue length does an incoming req see
system.mem_ctrls.wrQLenPdf::9                       0                       # What write queue length does an incoming req see
system.mem_ctrls.wrQLenPdf::10                      0                       # What write queue length does an incoming req see
system.mem_ctrls.wrQLenPdf::11                      0                       # What write queue length does an incoming req see
system.mem_ctrls.wrQLenPdf::12                      0                       # What write queue length does an incoming req see
system.mem_ctrls.wrQLenPdf::13                      0                       # What write queue length does an incoming req see
system.mem_ctrls.wrQLenPdf::14                      0                       # What write queue length does an incoming req see
system.mem_ctrls.wrQLenPdf::15                      1                       # What write queue length does an incoming req see
system.mem_ctrls.wrQLenPdf::16                      1                       # What write queue length does an incoming req see
system.mem_ctrls.wrQLenPdf::17                     20                       # What write queue length does an incoming req see
system.mem_ctrls.wrQLenPdf::18                     20                       # What write queue length does an incoming req see
system.mem_ctrls.wrQLenPdf::19                     20                       # What write queue length does an incoming req see
system.mem_ctrls.wrQLenPdf::20                     20                       # What write queue length does an incoming req see
system.mem_ctrls.wrQLenPdf::21                     20                       # What write queue length does an incoming req see
system.mem_ctrls.wrQLenPdf::22                     20                       # What write queue length does an incoming req see
system.mem_ctrls.wrQLenPdf::23                     20                       # What write queue length does an incoming req see
system.mem_ctrls.wrQLenPdf::24                     20                       # What write queue length does an incoming req see
system.mem_ctrls.wrQLenPdf::25                     20                       # What write queue length does an incoming req see
system.mem_ctrls.wrQLenPdf::26                     20                       # What write queue length does an incoming req see
system.mem_ctrls.wrQLenPdf::27                     19                       # What write queue length does an incoming req see
system.mem_ctrls.wrQLenPdf::28                     19                       # What write queue length does an incoming req see
system.mem_ctrls.wrQLenPdf::29                     20                       # What write queue length does an incoming req see
system.mem_ctrls.wrQLenPdf::30                     20                       # What write queue length does an incoming req see
system.mem_ctrls.wrQLenPdf::31                     20                       # What write queue length does an incoming req see
system.mem_ctrls.wrQLenPdf::32                     20                       # What write queue length does an incoming req see
system.mem_ctrls.wrQLenPdf::33                      0                       # What write queue length does an incoming req see
system.mem_ctrls.wrQLenPdf::34                      0                       # What write queue length does an incoming req see
system.mem_ctrls.wrQLenPdf::35                      0                       # What write queue length does an incoming req see
system.mem_ctrls.wrQLenPdf::36                      0                       # What write queue length does an incoming req see
system.mem_ctrls.wrQLenPdf::37                      0                       # What write queue length does an incoming req see
system.mem_ctrls.wrQLenPdf::38                      0                       # What write queue length does an incoming req see
system.mem_ctrls.wrQLenPdf::39                      0                       # What write queue length does an incoming req see
system.mem_ctrls.wrQLenPdf::40                      0                       # What write queue length does an incoming req see
system.mem_ctrls.wrQLenPdf::41                      0                       # What write queue length does an incoming req see
system.mem_ctrls.wrQLenPdf::42                      0                       # What write queue length does an incoming req see
system.mem_ctrls.wrQLenPdf::43                      0                       # What write queue length does an incoming req see
system.mem_ctrls.wrQLenPdf::44                      0                       # What write queue length does an incoming req see
system.mem_ctrls.wrQLenPdf::45                      0                       # What write queue length does an incoming req see
system.mem_ctrls.wrQLenPdf::46                      0                       # What write queue length does an incoming req see
system.mem_ctrls.wrQLenPdf::47                      0                       # What write queue length does an incoming req see
system.mem_ctrls.wrQLenPdf::48                      0                       # What write queue length does an incoming req see
system.mem_ctrls.wrQLenPdf::49                      0                       # What write queue length does an incoming req see
system.mem_ctrls.wrQLenPdf::50                      0                       # What write queue length does an incoming req see
system.mem_ctrls.wrQLenPdf::51                      0                       # What write queue length does an incoming req see
system.mem_ctrls.wrQLenPdf::52                      0                       # What write queue length does an incoming req see
system.mem_ctrls.wrQLenPdf::53                      0                       # What write queue length does an incoming req see
system.mem_ctrls.wrQLenPdf::54                      0                       # What write queue length does an incoming req see
system.mem_ctrls.wrQLenPdf::55                      0                       # What write queue length does an incoming req see
system.mem_ctrls.wrQLenPdf::56                      0                       # What write queue length does an incoming req see
system.mem_ctrls.wrQLenPdf::57                      0                       # What write queue length does an incoming req see
system.mem_ctrls.wrQLenPdf::58                      0                       # What write queue length does an incoming req see
system.mem_ctrls.wrQLenPdf::59                      0                       # What write queue length does an incoming req see
system.mem_ctrls.wrQLenPdf::60                      0                       # What write queue length does an incoming req see
system.mem_ctrls.wrQLenPdf::61                      0                       # What write queue length does an incoming req see
system.mem_ctrls.wrQLenPdf::62                      0                       # What write queue length does an incoming req see
system.mem_ctrls.wrQLenPdf::63                      0                       # What write queue length does an incoming req see
system.mem_ctrls.bytesPerActivate::samples        97790                       # Bytes accessed per row activation
system.mem_ctrls.bytesPerActivate::mean    123.927927                       # Bytes accessed per row activation
system.mem_ctrls.bytesPerActivate::gmean   106.750663                       # Bytes accessed per row activation
system.mem_ctrls.bytesPerActivate::stdev    74.206490                       # Bytes accessed per row activation
system.mem_ctrls.bytesPerActivate::0-127        45055     46.07%     46.07% # Bytes accessed per row activation
system.mem_ctrls.bytesPerActivate::128-255        42864     43.83%     89.91% # Bytes accessed per row activation
system.mem_ctrls.bytesPerActivate::256-383         8610      8.80%     98.71% # Bytes accessed per row activation
system.mem_ctrls.bytesPerActivate::384-511         1140      1.17%     99.88% # Bytes accessed per row activation
system.mem_ctrls.bytesPerActivate::512-639           96      0.10%     99.97% # Bytes accessed per row activation
system.mem_ctrls.bytesPerActivate::640-767           11      0.01%     99.99% # Bytes accessed per row activation
system.mem_ctrls.bytesPerActivate::768-895            5      0.01%     99.99% # Bytes accessed per row activation
system.mem_ctrls.bytesPerActivate::896-1023            5      0.01%    100.00% # Bytes accessed per row activation
system.mem_ctrls.bytesPerActivate::1024-1151            4      0.00%    100.00% # Bytes accessed per row activation
system.mem_ctrls.bytesPerActivate::total        97790                       # Bytes accessed per row activation
system.mem_ctrls.rdPerTurnAround::samples           20                       # Reads before turning the bus around for writes
system.mem_ctrls.rdPerTurnAround::mean    9679.300000                       # Reads before turning the bus around for writes
system.mem_ctrls.rdPerTurnAround::gmean   9444.391239                       # Reads before turning the bus around for writes
system.mem_ctrls.rdPerTurnAround::stdev   2156.279986                       # Reads before turning the bus around for writes
system.mem_ctrls.rdPerTurnAround::5632-6143            1      5.00%      5.00% # Reads before turning the bus around for writes
system.mem_ctrls.rdPerTurnAround::6144-6655            1      5.00%     10.00% # Reads before turning the bus around for writes
system.mem_ctrls.rdPerTurnAround::6656-7167            1      5.00%     15.00% # Reads before turning the bus around for writes
system.mem_ctrls.rdPerTurnAround::7168-7679            1      5.00%     20.00% # Reads before turning the bus around for writes
system.mem_ctrls.rdPerTurnAround::8192-8703            2     10.00%     30.00% # Reads before turning the bus around for writes
system.mem_ctrls.rdPerTurnAround::8704-9215            1      5.00%     35.00% # Reads before turning the bus around for writes
system.mem_ctrls.rdPerTurnAround::9216-9727            4     20.00%     55.00% # Reads before turning the bus around for writes
system.mem_ctrls.rdPerTurnAround::9728-10239            3     15.00%     70.00% # Reads before turning the bus around for writes
system.mem_ctrls.rdPerTurnAround::10240-10751            1      5.00%     75.00% # Reads before turning the bus around for writes
system.mem_ctrls.rdPerTurnAround::10752-11263            1      5.00%     80.00% # Reads before turning the bus around for writes
system.mem_ctrls.rdPerTurnAround::11776-12287            1      5.00%     85.00% # Reads before turning the bus around for writes
system.mem_ctrls.rdPerTurnAround::12288-12799            1      5.00%     90.00% # Reads before turning the bus around for writes
system.mem_ctrls.rdPerTurnAround::12800-13311            1      5.00%     95.00% # Reads before turning the bus around for writes
system.mem_ctrls.rdPerTurnAround::13824-14335            1      5.00%    100.00% # Reads before turning the bus around for writes
system.mem_ctrls.rdPerTurnAround::total            20                       # Reads before turning the bus around for writes
system.mem_ctrls.wrPerTurnAround::samples           20                       # Writes before turning the bus around for reads
system.mem_ctrls.wrPerTurnAround::mean      16.100000                       # Writes before turning the bus around for reads
system.mem_ctrls.wrPerTurnAround::gmean     16.094504                       # Writes before turning the bus around for reads
system.mem_ctrls.wrPerTurnAround::stdev      0.447214                       # Writes before turning the bus around for reads
system.mem_ctrls.wrPerTurnAround::16               19     95.00%     95.00% # Writes before turning the bus around for reads
system.mem_ctrls.wrPerTurnAround::18                1      5.00%    100.00% # Writes before turning the bus around for reads
system.mem_ctrls.wrPerTurnAround::total            20                       # Writes before turning the bus around for reads
system.mem_ctrls.totQLat                   4680737000                       # Total ticks spent queuing
system.mem_ctrls.totMemAccLat              8224880750                       # Total ticks spent from burst creation until serviced by the DRAM
system.mem_ctrls.totBusLat                  945105000                       # Total ticks spent in databus transfers
system.mem_ctrls.avgQLat                     24762.92                       # Average queueing delay per DRAM burst
system.mem_ctrls.avgBusLat                    4999.97                       # Average bus latency per DRAM burst
system.mem_ctrls.avgMemAccLat                43512.82                       # Average memory access latency per DRAM burst
system.mem_ctrls.avgRdBW                       792.37                       # Average DRAM read bandwidth in MiByte/s
system.mem_ctrls.avgWrBW                         1.35                       # Average achieved write bandwidth in MiByte/s
system.mem_ctrls.avgRdBWSys                    792.61                       # Average system read bandwidth in MiByte/s
system.mem_ctrls.avgWrBWSys                      1.34                       # Average system write bandwidth in MiByte/s
system.mem_ctrls.peakBW                      12800.00                       # Theoretical peak bandwidth in MiByte/s
system.mem_ctrls.busUtil                         6.20                       # Data bus utilization in percentage
system.mem_ctrls.busUtilRead                     6.19                       # Data bus utilization in percentage for reads
system.mem_ctrls.busUtilWrite                    0.01                       # Data bus utilization in percentage for writes
system.mem_ctrls.avgRdQLen                       1.31                       # Average read queue length when enqueuing
system.mem_ctrls.avgWrQLen                      25.05                       # Average write queue length when enqueuing
system.mem_ctrls.readRowHits                    91280                       # Number of row buffer hits during reads
system.mem_ctrls.writeRowHits                     276                       # Number of row buffer hits during writes
system.mem_ctrls.readRowHitRate                 48.29                       # Row buffer hit rate for reads
system.mem_ctrls.writeRowHitRate                86.25                       # Row buffer hit rate for writes
system.mem_ctrls.avgGap                      80609.58                       # Average gap between requests
system.mem_ctrls.pageHitRate                    48.35                       # Row buffer hit rate, read and write combined
system.mem_ctrls_0.actEnergy                348753300                       # Energy for activate commands per rank (pJ)
system.mem_ctrls_0.preEnergy                185351595                       # Energy for precharge commands per rank (pJ)
system.mem_ctrls_0.readEnergy               672452340                       # Energy for read commands per rank (pJ)
system.mem_ctrls_0.writeEnergy                  52200                       # Energy for write commands per rank (pJ)
system.mem_ctrls_0.refreshEnergy         1204694400.000000                       # Energy for refresh commands per rank (pJ)
system.mem_ctrls_0.actBackEnergy           1599992280                       # Energy for active background per rank (pJ)
system.mem_ctrls_0.preBackEnergy             24505440                       # Energy for precharge background per rank (pJ)
system.mem_ctrls_0.actPowerDownEnergy      5216825820                       # Energy for active power-down per rank (pJ)
system.mem_ctrls_0.prePowerDownEnergy        97676160                       # Energy for precharge power-down per rank (pJ)
system.mem_ctrls_0.selfRefreshEnergy                0                       # Energy for self refresh per rank (pJ)
system.mem_ctrls_0.totalEnergy             9350303535                       # Total energy per rank (pJ)
system.mem_ctrls_0.averagePower            612.438120                       # Core power per rank (mW)
system.mem_ctrls_0.totalIdleTime          11694176250                       # Total Idle time Per DRAM Rank
system.mem_ctrls_0.memoryStateTime::IDLE      9480000                       # Time in different power states
system.mem_ctrls_0.memoryStateTime::REF     509600000                       # Time in different power states
system.mem_ctrls_0.memoryStateTime::SREF            0                       # Time in different power states
system.mem_ctrls_0.memoryStateTime::PRE_PDN    254523250                       # Time in different power states
system.mem_ctrls_0.memoryStateTime::ACT    3052995500                       # Time in different power states
system.mem_ctrls_0.memoryStateTime::ACT_PDN  11440745375                       # Time in different power states
system.mem_ctrls_1.actEnergy                349445880                       # Energy for activate commands per rank (pJ)
system.mem_ctrls_1.preEnergy                185761455                       # Energy for precharge commands per rank (pJ)
system.mem_ctrls_1.readEnergy               677157600                       # Energy for read commands per rank (pJ)
system.mem_ctrls_1.writeEnergy                1628640                       # Energy for write commands per rank (pJ)
system.mem_ctrls_1.refreshEnergy         1206538320.000000                       # Energy for refresh commands per rank (pJ)
system.mem_ctrls_1.actBackEnergy           1606704600                       # Energy for active background per rank (pJ)
system.mem_ctrls_1.preBackEnergy             24695520                       # Energy for precharge background per rank (pJ)
system.mem_ctrls_1.actPowerDownEnergy      5193524790                       # Energy for active power-down per rank (pJ)
system.mem_ctrls_1.prePowerDownEnergy       111290400                       # Energy for precharge power-down per rank (pJ)
system.mem_ctrls_1.selfRefreshEnergy     1229280.000000                       # Energy for self refresh per rank (pJ)
system.mem_ctrls_1.totalEnergy             9358045755                       # Total energy per rank (pJ)
system.mem_ctrls_1.averagePower            612.945230                       # Core power per rank (mW)
system.mem_ctrls_1.totalIdleTime          11678968500                       # Total Idle time Per DRAM Rank
system.mem_ctrls_1.memoryStateTime::IDLE     10113250                       # Time in different power states
system.mem_ctrls_1.memoryStateTime::REF     510287875                       # Time in different power states
system.mem_ctrls_1.memoryStateTime::SREF       363000                       # Time in different power states
system.mem_ctrls_1.memoryStateTime::PRE_PDN    289652000                       # Time in different power states
system.mem_ctrls_1.memoryStateTime::ACT    3067974500                       # Time in different power states
system.mem_ctrls_1.memoryStateTime::ACT_PDN  11388953500                       # Time in different power states
system.pwrStateResidencyTicks::UNDEFINED  15267344125                       # Cumulative time (in ticks) in various power states
system.cpu0.branchPred.lookups                1724067                       # Number of BP lookups
system.cpu0.branchPred.condPredicted          1724067                       # Number of conditional branches predicted
system.cpu0.branchPred.condIncorrect            71101                       # Number of conditional branches incorrect
system.cpu0.branchPred.BTBLookups             1399394                       # Number of BTB lookups
system.cpu0.branchPred.BTBHits                      0                       # Number of BTB hits
system.cpu0.branchPred.BTBCorrect                   0                       # Number of correct BTB predictions (this stat may not work properly.
system.cpu0.branchPred.BTBHitPct             0.000000                       # BTB Hit Percentage
system.cpu0.branchPred.usedRAS                  45323                       # Number of times the RAS was used to get a target.
system.cpu0.branchPred.RASInCorrect              7096                       # Number of incorrect RAS predictions.
system.cpu0.branchPred.indirectLookups        1399394                       # Number of indirect predictor lookups.
system.cpu0.branchPred.indirectHits            731981                       # Number of indirect target hits.
system.cpu0.branchPred.indirectMisses          667413                       # Number of indirect misses.
system.cpu0.branchPredindirectMispredicted        22485                       # Number of mispredicted indirect branches.
system.cpu_voltage_domain.voltage                   1                       # Voltage in Volts
system.cpu_clk_domain.clock                       500                       # Clock period in ticks
system.cpu0.dtb.walker.pwrStateResidencyTicks::UNDEFINED  15267344125                       # Cumulative time (in ticks) in various power states
system.cpu0.dtb.rdAccesses                     799863                       # TLB accesses on read requests
system.cpu0.dtb.wrAccesses                      50258                       # TLB accesses on write requests
system.cpu0.dtb.rdMisses                       163807                       # TLB misses on read requests
system.cpu0.dtb.wrMisses                          742                       # TLB misses on write requests
system.cpu0.apic_clk_domain.clock                8000                       # Clock period in ticks
system.cpu0.interrupts.pwrStateResidencyTicks::UNDEFINED  15267344125                       # Cumulative time (in ticks) in various power states
system.cpu0.itb.walker.pwrStateResidencyTicks::UNDEFINED  15267344125                       # Cumulative time (in ticks) in various power states
system.cpu0.itb.rdAccesses                          0                       # TLB accesses on read requests
system.cpu0.itb.wrAccesses                    1440363                       # TLB accesses on write requests
system.cpu0.itb.rdMisses                            0                       # TLB misses on read requests
system.cpu0.itb.wrMisses                         5926                       # TLB misses on write requests
system.cpu0.workload.numSyscalls                    0                       # Number of system calls
system.cpu0.pwrStateResidencyTicks::ON    15267344125                       # Cumulative time (in ticks) in various power states
system.cpu0.numCycles                        30534688                       # number of cpu cycles simulated
system.cpu0.numWorkItemsStarted                     0                       # number of work items this cpu started
system.cpu0.numWorkItemsCompleted                   0                       # number of work items this cpu completed
system.cpu0.fetch.icacheStallCycles           1471207                       # Number of cycles fetch is stalled on an Icache miss
system.cpu0.fetch.Insts                       4980321                       # Number of instructions fetch has processed
system.cpu0.fetch.Branches                    1724067                       # Number of branches that fetch encountered
system.cpu0.fetch.predictedBranches            777304                       # Number of branches that fetch has predicted taken
system.cpu0.fetch.Cycles                     28858313                       # Number of cycles fetch has run and was not squashing or blocked
system.cpu0.fetch.SquashCycles                 145946                       # Number of cycles fetch has spent squashing
system.cpu0.fetch.TlbCycles                      3867                       # Number of cycles fetch has spent waiting for tlb
system.cpu0.fetch.MiscStallCycles                1286                       # Number of cycles fetch has spent waiting on interrupts, or bad addresses, or out of MSHRs
system.cpu0.fetch.PendingTrapStallCycles        53777                       # Number of stall cycles due to pending traps
system.cpu0.fetch.CacheLines                  1434437                       # Number of cache lines fetched
system.cpu0.fetch.IcacheSquashes                 8176                       # Number of outstanding Icache misses that were squashed
system.cpu0.fetch.ItlbSquashes                     20                       # Number of outstanding ITLB misses that were squashed
system.cpu0.fetch.rateDist::samples          30461423                       # Number of instructions fetched each cycle (Total)
system.cpu0.fetch.rateDist::mean             0.328484                       # Number of instructions fetched each cycle (Total)
system.cpu0.fetch.rateDist::stdev            1.440690                       # Number of instructions fetched each cycle (Total)
system.cpu0.fetch.rateDist::underflows              0      0.00%      0.00% # Number of instructions fetched each cycle (Total)
system.cpu0.fetch.rateDist::0                28517885     93.62%     93.62% # Number of instructions fetched each cycle (Total)
system.cpu0.fetch.rateDist::1                   23895      0.08%     93.70% # Number of instructions fetched each cycle (Total)
system.cpu0.fetch.rateDist::2                  717550      2.36%     96.05% # Number of instructions fetched each cycle (Total)
system.cpu0.fetch.rateDist::3                   25571      0.08%     96.14% # Number of instructions fetched each cycle (Total)
system.cpu0.fetch.rateDist::4                  139395      0.46%     96.60% # Number of instructions fetched each cycle (Total)
system.cpu0.fetch.rateDist::5                   61237      0.20%     96.80% # Number of instructions fetched each cycle (Total)
system.cpu0.fetch.rateDist::6                   88593      0.29%     97.09% # Number of instructions fetched each cycle (Total)
system.cpu0.fetch.rateDist::7                   23312      0.08%     97.16% # Number of instructions fetched each cycle (Total)
system.cpu0.fetch.rateDist::8                  863985      2.84%    100.00% # Number of instructions fetched each cycle (Total)
system.cpu0.fetch.rateDist::overflows               0      0.00%    100.00% # Number of instructions fetched each cycle (Total)
system.cpu0.fetch.rateDist::min_value               0                       # Number of instructions fetched each cycle (Total)
system.cpu0.fetch.rateDist::max_value               8                       # Number of instructions fetched each cycle (Total)
system.cpu0.fetch.rateDist::total            30461423                       # Number of instructions fetched each cycle (Total)
system.cpu0.fetch.branchRate                 0.056463                       # Number of branch fetches per cycle
system.cpu0.fetch.rate                       0.163104                       # Number of inst fetches per cycle
system.cpu0.decode.IdleCycles                  729952                       # Number of cycles decode is idle
system.cpu0.decode.BlockedCycles             28389013                       # Number of cycles decode is blocked
system.cpu0.decode.RunCycles                   936879                       # Number of cycles decode is running
system.cpu0.decode.UnblockCycles               332606                       # Number of cycles decode is unblocking
system.cpu0.decode.SquashCycles                 72973                       # Number of cycles decode is squashing
system.cpu0.decode.DecodedInsts               8202528                       # Number of instructions handled by decode
system.cpu0.rename.SquashCycles                 72973                       # Number of cycles rename is squashing
system.cpu0.rename.IdleCycles                  831231                       # Number of cycles rename is idle
system.cpu0.rename.BlockCycles               27044594                       # Number of cycles rename is blocking
system.cpu0.rename.serializeStallCycles         26520                       # count of cycles rename stalled for serializing inst
system.cpu0.rename.RunCycles                  1087244                       # Number of cycles rename is running
system.cpu0.rename.UnblockCycles              1398861                       # Number of cycles rename is unblocking
system.cpu0.rename.RenamedInsts               7875123                       # Number of instructions processed by rename
system.cpu0.rename.ROBFullEvents                69973                       # Number of times rename has blocked due to ROB full
system.cpu0.rename.IQFullEvents               1095728                       # Number of times rename has blocked due to IQ full
system.cpu0.rename.LQFullEvents                250240                       # Number of times rename has blocked due to LQ full
system.cpu0.rename.SQFullEvents                   879                       # Number of times rename has blocked due to SQ full
system.cpu0.rename.RenamedOperands            9378939                       # Number of destination operands rename has renamed
system.cpu0.rename.RenameLookups             21964339                       # Number of register rename lookups that rename has made
system.cpu0.rename.int_rename_lookups        10283773                       # Number of integer rename lookups
system.cpu0.rename.fp_rename_lookups            35557                       # Number of floating rename lookups
system.cpu0.rename.CommittedMaps              3205033                       # Number of HB maps that are committed
system.cpu0.rename.UndoneMaps                 6173905                       # Number of HB maps that are undone due to squashing
system.cpu0.rename.serializingInsts               394                       # count of serializing insts renamed
system.cpu0.rename.tempSerializingInsts           480                       # count of temporary serializing insts renamed
system.cpu0.rename.skidInsts                  2111888                       # count of insts added to the skid buffer
system.cpu0.memDep0.insertedLoads             1438365                       # Number of loads inserted to the mem dependence unit.
system.cpu0.memDep0.insertedStores              74630                       # Number of stores inserted to the mem dependence unit.
system.cpu0.memDep0.conflictingLoads             4598                       # Number of conflicting loads.
system.cpu0.memDep0.conflictingStores            4483                       # Number of conflicting stores.
system.cpu0.iq.iqInstsAdded                   7488512                       # Number of instructions added to the IQ (excludes non-spec)
system.cpu0.iq.iqNonSpecInstsAdded               4440                       # Number of non-speculative instructions added to the IQ
system.cpu0.iq.iqInstsIssued                  5295929                       # Number of instructions issued
system.cpu0.iq.iqSquashedInstsIssued             5473                       # Number of squashed instructions issued
system.cpu0.iq.iqSquashedInstsExamined        4818993                       # Number of squashed instructions iterated over during squash; mainly for profiling
system.cpu0.iq.iqSquashedOperandsExamined     10141476                       # Number of squashed operands that are examined and possibly removed from graph
system.cpu0.iq.iqSquashedNonSpecRemoved          4440                       # Number of squashed non-spec instructions that were removed
system.cpu0.iq.issued_per_cycle::samples     30461423                       # Number of insts issued each cycle
system.cpu0.iq.issued_per_cycle::mean        0.173857                       # Number of insts issued each cycle
system.cpu0.iq.issued_per_cycle::stdev       0.755402                       # Number of insts issued each cycle
system.cpu0.iq.issued_per_cycle::underflows            0      0.00%      0.00% # Number of insts issued each cycle
system.cpu0.iq.issued_per_cycle::0           28274361     92.82%     92.82% # Number of insts issued each cycle
system.cpu0.iq.issued_per_cycle::1             869437      2.85%     95.67% # Number of insts issued each cycle
system.cpu0.iq.issued_per_cycle::2             465551      1.53%     97.20% # Number of insts issued each cycle
system.cpu0.iq.issued_per_cycle::3             309897      1.02%     98.22% # Number of insts issued each cycle
system.cpu0.iq.issued_per_cycle::4             329615      1.08%     99.30% # Number of insts issued each cycle
system.cpu0.iq.issued_per_cycle::5              91916      0.30%     99.60% # Number of insts issued each cycle
system.cpu0.iq.issued_per_cycle::6              75910      0.25%     99.85% # Number of insts issued each cycle
system.cpu0.iq.issued_per_cycle::7              25689      0.08%     99.94% # Number of insts issued each cycle
system.cpu0.iq.issued_per_cycle::8              19047      0.06%    100.00% # Number of insts issued each cycle
system.cpu0.iq.issued_per_cycle::overflows            0      0.00%    100.00% # Number of insts issued each cycle
system.cpu0.iq.issued_per_cycle::min_value            0                       # Number of insts issued each cycle
system.cpu0.iq.issued_per_cycle::max_value            8                       # Number of insts issued each cycle
system.cpu0.iq.issued_per_cycle::total       30461423                       # Number of insts issued each cycle
system.cpu0.iq.fu_full::No_OpClass                  0      0.00%      0.00% # attempts to use FU when none available
system.cpu0.iq.fu_full::IntAlu                   9636     66.55%     66.55% # attempts to use FU when none available
system.cpu0.iq.fu_full::IntMult                     0      0.00%     66.55% # attempts to use FU when none available
system.cpu0.iq.fu_full::IntDiv                      0      0.00%     66.55% # attempts to use FU when none available
system.cpu0.iq.fu_full::FloatAdd                 1001      6.91%     73.46% # attempts to use FU when none available
system.cpu0.iq.fu_full::FloatCmp                    0      0.00%     73.46% # attempts to use FU when none available
system.cpu0.iq.fu_full::FloatCvt                    0      0.00%     73.46% # attempts to use FU when none available
system.cpu0.iq.fu_full::FloatMult                   0      0.00%     73.46% # attempts to use FU when none available
system.cpu0.iq.fu_full::FloatMultAcc                0      0.00%     73.46% # attempts to use FU when none available
system.cpu0.iq.fu_full::FloatDiv                    0      0.00%     73.46% # attempts to use FU when none available
system.cpu0.iq.fu_full::FloatMisc                   0      0.00%     73.46% # attempts to use FU when none available
system.cpu0.iq.fu_full::FloatSqrt                   0      0.00%     73.46% # attempts to use FU when none available
system.cpu0.iq.fu_full::SimdAdd                     0      0.00%     73.46% # attempts to use FU when none available
system.cpu0.iq.fu_full::SimdAddAcc                  0      0.00%     73.46% # attempts to use FU when none available
system.cpu0.iq.fu_full::SimdAlu                     0      0.00%     73.46% # attempts to use FU when none available
system.cpu0.iq.fu_full::SimdCmp                     0      0.00%     73.46% # attempts to use FU when none available
system.cpu0.iq.fu_full::SimdCvt                     0      0.00%     73.46% # attempts to use FU when none available
system.cpu0.iq.fu_full::SimdMisc                    0      0.00%     73.46% # attempts to use FU when none available
system.cpu0.iq.fu_full::SimdMult                    0      0.00%     73.46% # attempts to use FU when none available
system.cpu0.iq.fu_full::SimdMultAcc                 0      0.00%     73.46% # attempts to use FU when none available
system.cpu0.iq.fu_full::SimdShift                   0      0.00%     73.46% # attempts to use FU when none available
system.cpu0.iq.fu_full::SimdShiftAcc                0      0.00%     73.46% # attempts to use FU when none available
system.cpu0.iq.fu_full::SimdSqrt                    0      0.00%     73.46% # attempts to use FU when none available
system.cpu0.iq.fu_full::SimdFloatAdd                0      0.00%     73.46% # attempts to use FU when none available
system.cpu0.iq.fu_full::SimdFloatAlu                0      0.00%     73.46% # attempts to use FU when none available
system.cpu0.iq.fu_full::SimdFloatCmp                0      0.00%     73.46% # attempts to use FU when none available
system.cpu0.iq.fu_full::SimdFloatCvt                0      0.00%     73.46% # attempts to use FU when none available
system.cpu0.iq.fu_full::SimdFloatDiv                0      0.00%     73.46% # attempts to use FU when none available
system.cpu0.iq.fu_full::SimdFloatMisc               0      0.00%     73.46% # attempts to use FU when none available
system.cpu0.iq.fu_full::SimdFloatMult               0      0.00%     73.46% # attempts to use FU when none available
system.cpu0.iq.fu_full::SimdFloatMultAcc            0      0.00%     73.46% # attempts to use FU when none available
system.cpu0.iq.fu_full::SimdFloatSqrt               0      0.00%     73.46% # attempts to use FU when none available
system.cpu0.iq.fu_full::MemRead                  3437     23.74%     97.20% # attempts to use FU when none available
system.cpu0.iq.fu_full::MemWrite                  254      1.75%     98.95% # attempts to use FU when none available
system.cpu0.iq.fu_full::FloatMemRead              138      0.95%     99.90% # attempts to use FU when none available
system.cpu0.iq.fu_full::FloatMemWrite              14      0.10%    100.00% # attempts to use FU when none available
system.cpu0.iq.fu_full::IprAccess                   0      0.00%    100.00% # attempts to use FU when none available
system.cpu0.iq.fu_full::InstPrefetch                0      0.00%    100.00% # attempts to use FU when none available
system.cpu0.iq.FU_type_0::No_OpClass            17827      0.34%      0.34% # Type of FU issued
system.cpu0.iq.FU_type_0::IntAlu              4364041     82.40%     82.74% # Type of FU issued
system.cpu0.iq.FU_type_0::IntMult                1217      0.02%     82.76% # Type of FU issued
system.cpu0.iq.FU_type_0::IntDiv                 8139      0.15%     82.92% # Type of FU issued
system.cpu0.iq.FU_type_0::FloatAdd              12459      0.24%     83.15% # Type of FU issued
system.cpu0.iq.FU_type_0::FloatCmp                  0      0.00%     83.15% # Type of FU issued
system.cpu0.iq.FU_type_0::FloatCvt                  0      0.00%     83.15% # Type of FU issued
system.cpu0.iq.FU_type_0::FloatMult                 0      0.00%     83.15% # Type of FU issued
system.cpu0.iq.FU_type_0::FloatMultAcc              0      0.00%     83.15% # Type of FU issued
system.cpu0.iq.FU_type_0::FloatDiv                  0      0.00%     83.15% # Type of FU issued
system.cpu0.iq.FU_type_0::FloatMisc                 0      0.00%     83.15% # Type of FU issued
system.cpu0.iq.FU_type_0::FloatSqrt                 0      0.00%     83.15% # Type of FU issued
system.cpu0.iq.FU_type_0::SimdAdd                   0      0.00%     83.15% # Type of FU issued
system.cpu0.iq.FU_type_0::SimdAddAcc                0      0.00%     83.15% # Type of FU issued
system.cpu0.iq.FU_type_0::SimdAlu                   0      0.00%     83.15% # Type of FU issued
system.cpu0.iq.FU_type_0::SimdCmp                   0      0.00%     83.15% # Type of FU issued
system.cpu0.iq.FU_type_0::SimdCvt                   0      0.00%     83.15% # Type of FU issued
system.cpu0.iq.FU_type_0::SimdMisc                  0      0.00%     83.15% # Type of FU issued
system.cpu0.iq.FU_type_0::SimdMult                  0      0.00%     83.15% # Type of FU issued
system.cpu0.iq.FU_type_0::SimdMultAcc               0      0.00%     83.15% # Type of FU issued
system.cpu0.iq.FU_type_0::SimdShift                 0      0.00%     83.15% # Type of FU issued
system.cpu0.iq.FU_type_0::SimdShiftAcc              0      0.00%     83.15% # Type of FU issued
system.cpu0.iq.FU_type_0::SimdSqrt                  0      0.00%     83.15% # Type of FU issued
system.cpu0.iq.FU_type_0::SimdFloatAdd              0      0.00%     83.15% # Type of FU issued
system.cpu0.iq.FU_type_0::SimdFloatAlu              0      0.00%     83.15% # Type of FU issued
system.cpu0.iq.FU_type_0::SimdFloatCmp              0      0.00%     83.15% # Type of FU issued
system.cpu0.iq.FU_type_0::SimdFloatCvt              0      0.00%     83.15% # Type of FU issued
system.cpu0.iq.FU_type_0::SimdFloatDiv              0      0.00%     83.15% # Type of FU issued
system.cpu0.iq.FU_type_0::SimdFloatMisc             0      0.00%     83.15% # Type of FU issued
system.cpu0.iq.FU_type_0::SimdFloatMult             0      0.00%     83.15% # Type of FU issued
system.cpu0.iq.FU_type_0::SimdFloatMultAcc            0      0.00%     83.15% # Type of FU issued
system.cpu0.iq.FU_type_0::SimdFloatSqrt             0      0.00%     83.15% # Type of FU issued
system.cpu0.iq.FU_type_0::MemRead              835440     15.78%     98.93% # Type of FU issued
system.cpu0.iq.FU_type_0::MemWrite              54301      1.03%     99.95% # Type of FU issued
system.cpu0.iq.FU_type_0::FloatMemRead           2453      0.05%    100.00% # Type of FU issued
system.cpu0.iq.FU_type_0::FloatMemWrite            52      0.00%    100.00% # Type of FU issued
system.cpu0.iq.FU_type_0::IprAccess                 0      0.00%    100.00% # Type of FU issued
system.cpu0.iq.FU_type_0::InstPrefetch              0      0.00%    100.00% # Type of FU issued
system.cpu0.iq.FU_type_0::total               5295929                       # Type of FU issued
system.cpu0.iq.rate                          0.173440                       # Inst issue rate
system.cpu0.iq.fu_busy_cnt                      14480                       # FU busy when requested
system.cpu0.iq.fu_busy_rate                  0.002734                       # FU busy rate (busy events/executed inst)
system.cpu0.iq.int_inst_queue_reads          41041962                       # Number of integer instruction queue reads
system.cpu0.iq.int_inst_queue_writes         12280254                       # Number of integer instruction queue writes
system.cpu0.iq.int_inst_queue_wakeup_accesses      5079173                       # Number of integer instruction queue wakeup accesses
system.cpu0.iq.fp_inst_queue_reads              31272                       # Number of floating instruction queue reads
system.cpu0.iq.fp_inst_queue_writes             31692                       # Number of floating instruction queue writes
system.cpu0.iq.fp_inst_queue_wakeup_accesses        13400                       # Number of floating instruction queue wakeup accesses
system.cpu0.iq.vec_inst_queue_reads                 0                       # Number of vector instruction queue reads
system.cpu0.iq.vec_inst_queue_writes                0                       # Number of vector instruction queue writes
system.cpu0.iq.vec_inst_queue_wakeup_accesses            0                       # Number of vector instruction queue wakeup accesses
system.cpu0.iq.int_alu_accesses               5276457                       # Number of integer alu accesses
system.cpu0.iq.fp_alu_accesses                  16125                       # Number of floating point alu accesses
system.cpu0.iq.vec_alu_accesses                     0                       # Number of vector alu accesses
system.cpu0.iew.lsq.thread0.forwLoads            3451                       # Number of loads that had data forwarded from stores
system.cpu0.iew.lsq.thread0.invAddrLoads            0                       # Number of loads ignored due to an invalid address
system.cpu0.iew.lsq.thread0.squashedLoads       925658                       # Number of loads squashed
system.cpu0.iew.lsq.thread0.ignoredResponses          141                       # Number of memory responses ignored because the instruction is squashed
system.cpu0.iew.lsq.thread0.memOrderViolation            1                       # Number of memory ordering violations
system.cpu0.iew.lsq.thread0.squashedStores        51662                       # Number of stores squashed
system.cpu0.iew.lsq.thread0.invAddrSwpfs            0                       # Number of software prefetches ignored due to an invalid address
system.cpu0.iew.lsq.thread0.blockedLoads            0                       # Number of blocked loads due to partial load-store forwarding
system.cpu0.iew.lsq.thread0.rescheduledLoads           16                       # Number of loads that were rescheduled
system.cpu0.iew.lsq.thread0.cacheBlocked         1782                       # Number of times an access to memory failed due to the cache being blocked
system.cpu0.iew.iewIdleCycles                       0                       # Number of cycles IEW is idle
system.cpu0.iew.iewSquashCycles                 72973                       # Number of cycles IEW is squashing
system.cpu0.iew.iewBlockCycles               25094894                       # Number of cycles IEW is blocking
system.cpu0.iew.iewUnblockCycles               283915                       # Number of cycles IEW is unblocking
system.cpu0.iew.iewDispatchedInsts            7492952                       # Number of instructions dispatched to IQ
system.cpu0.iew.iewDispSquashedInsts             4539                       # Number of squashed instructions skipped by dispatch
system.cpu0.iew.iewDispLoadInsts              1438365                       # Number of dispatched load instructions
system.cpu0.iew.iewDispStoreInsts               74630                       # Number of dispatched store instructions
system.cpu0.iew.iewDispNonSpecInsts              1712                       # Number of dispatched non-speculative instructions
system.cpu0.iew.iewIQFullEvents                 20924                       # Number of times the IQ has become full, causing a stall
system.cpu0.iew.iewLSQFullEvents                67194                       # Number of times the LSQ has become full, causing a stall
system.cpu0.iew.memOrderViolationEvents             1                       # Number of memory order violations
system.cpu0.iew.predictedTakenIncorrect         38307                       # Number of branches that were predicted taken incorrectly
system.cpu0.iew.predictedNotTakenIncorrect        41969                       # Number of branches that were predicted not taken incorrectly
system.cpu0.iew.branchMispredicts               80276                       # Number of branch mispredicts detected at execute
system.cpu0.iew.iewExecutedInsts              5202174                       # Number of executed instructions
system.cpu0.iew.iewExecLoadInsts               799660                       # Number of load instructions executed
system.cpu0.iew.iewExecSquashedInsts            93755                       # Number of squashed instructions skipped in execute
system.cpu0.iew.exec_swp                            0                       # number of swp insts executed
system.cpu0.iew.exec_nop                            0                       # number of nop insts executed
system.cpu0.iew.exec_refs                      849915                       # number of memory reference insts executed
system.cpu0.iew.exec_branches                  616081                       # Number of branches executed
system.cpu0.iew.exec_stores                     50255                       # Number of stores executed
system.cpu0.iew.exec_rate                    0.170369                       # Inst execution rate
system.cpu0.iew.wb_sent                       5109100                       # cumulative count of insts sent to commit
system.cpu0.iew.wb_count                      5092573                       # cumulative count of insts written-back
system.cpu0.iew.wb_producers                  3775281                       # num instructions producing a value
system.cpu0.iew.wb_consumers                  5908459                       # num instructions consuming a value
system.cpu0.iew.wb_rate                      0.166780                       # insts written-back per cycle
system.cpu0.iew.wb_fanout                    0.638962                       # average fanout of values written-back
system.cpu0.commit.commitSquashedInsts        4819735                       # The number of squashed insts skipped by commit
system.cpu0.commit.branchMispredicts            72973                       # The number of times a branch was mispredicted
system.cpu0.commit.committed_per_cycle::samples     29781514                       # Number of insts commited each cycle
system.cpu0.commit.committed_per_cycle::mean     0.089786                       # Number of insts commited each cycle
system.cpu0.commit.committed_per_cycle::stdev     0.546240                       # Number of insts commited each cycle
system.cpu0.commit.committed_per_cycle::underflows            0      0.00%      0.00% # Number of insts commited each cycle
system.cpu0.commit.committed_per_cycle::0     28606517     96.05%     96.05% # Number of insts commited each cycle
system.cpu0.commit.committed_per_cycle::1       547500      1.84%     97.89% # Number of insts commited each cycle
system.cpu0.commit.committed_per_cycle::2       126726      0.43%     98.32% # Number of insts commited each cycle
system.cpu0.commit.committed_per_cycle::3       351225      1.18%     99.50% # Number of insts commited each cycle
system.cpu0.commit.committed_per_cycle::4        64920      0.22%     99.72% # Number of insts commited each cycle
system.cpu0.commit.committed_per_cycle::5        34230      0.11%     99.83% # Number of insts commited each cycle
system.cpu0.commit.committed_per_cycle::6         5492      0.02%     99.85% # Number of insts commited each cycle
system.cpu0.commit.committed_per_cycle::7         3682      0.01%     99.86% # Number of insts commited each cycle
system.cpu0.commit.committed_per_cycle::8        41222      0.14%    100.00% # Number of insts commited each cycle
system.cpu0.commit.committed_per_cycle::overflows            0      0.00%    100.00% # Number of insts commited each cycle
system.cpu0.commit.committed_per_cycle::min_value            0                       # Number of insts commited each cycle
system.cpu0.commit.committed_per_cycle::max_value            8                       # Number of insts commited each cycle
system.cpu0.commit.committed_per_cycle::total     29781514                       # Number of insts commited each cycle
system.cpu0.commit.committedInsts             1338164                       # Number of instructions committed
system.cpu0.commit.committedOps               2673959                       # Number of ops (including micro ops) committed
system.cpu0.commit.swp_count                        0                       # Number of s/w prefetches committed
system.cpu0.commit.refs                        535675                       # Number of memory references committed
system.cpu0.commit.loads                       512707                       # Number of loads committed
system.cpu0.commit.membars                          0                       # Number of memory barriers committed
system.cpu0.commit.branches                    487710                       # Number of branches committed
system.cpu0.commit.vec_insts                        0                       # Number of committed Vector instructions.
system.cpu0.commit.fp_insts                      9198                       # Number of committed floating point instructions.
system.cpu0.commit.int_insts                  2664677                       # Number of committed integer instructions.
system.cpu0.commit.function_calls                4050                       # Number of function calls committed.
system.cpu0.commit.op_class_0::No_OpClass         2760      0.10%      0.10% # Class of committed instruction
system.cpu0.commit.op_class_0::IntAlu         2120836     79.31%     79.42% # Class of committed instruction
system.cpu0.commit.op_class_0::IntMult            162      0.01%     79.42% # Class of committed instruction
system.cpu0.commit.op_class_0::IntDiv            6666      0.25%     79.67% # Class of committed instruction
system.cpu0.commit.op_class_0::FloatAdd          7860      0.29%     79.97% # Class of committed instruction
system.cpu0.commit.op_class_0::FloatCmp             0      0.00%     79.97% # Class of committed instruction
system.cpu0.commit.op_class_0::FloatCvt             0      0.00%     79.97% # Class of committed instruction
system.cpu0.commit.op_class_0::FloatMult            0      0.00%     79.97% # Class of committed instruction
system.cpu0.commit.op_class_0::FloatMultAcc            0      0.00%     79.97% # Class of committed instruction
system.cpu0.commit.op_class_0::FloatDiv             0      0.00%     79.97% # Class of committed instruction
system.cpu0.commit.op_class_0::FloatMisc            0      0.00%     79.97% # Class of committed instruction
system.cpu0.commit.op_class_0::FloatSqrt            0      0.00%     79.97% # Class of committed instruction
system.cpu0.commit.op_class_0::SimdAdd              0      0.00%     79.97% # Class of committed instruction
system.cpu0.commit.op_class_0::SimdAddAcc            0      0.00%     79.97% # Class of committed instruction
system.cpu0.commit.op_class_0::SimdAlu              0      0.00%     79.97% # Class of committed instruction
system.cpu0.commit.op_class_0::SimdCmp              0      0.00%     79.97% # Class of committed instruction
system.cpu0.commit.op_class_0::SimdCvt              0      0.00%     79.97% # Class of committed instruction
system.cpu0.commit.op_class_0::SimdMisc             0      0.00%     79.97% # Class of committed instruction
system.cpu0.commit.op_class_0::SimdMult             0      0.00%     79.97% # Class of committed instruction
system.cpu0.commit.op_class_0::SimdMultAcc            0      0.00%     79.97% # Class of committed instruction
system.cpu0.commit.op_class_0::SimdShift            0      0.00%     79.97% # Class of committed instruction
system.cpu0.commit.op_class_0::SimdShiftAcc            0      0.00%     79.97% # Class of committed instruction
system.cpu0.commit.op_class_0::SimdSqrt             0      0.00%     79.97% # Class of committed instruction
system.cpu0.commit.op_class_0::SimdFloatAdd            0      0.00%     79.97% # Class of committed instruction
system.cpu0.commit.op_class_0::SimdFloatAlu            0      0.00%     79.97% # Class of committed instruction
system.cpu0.commit.op_class_0::SimdFloatCmp            0      0.00%     79.97% # Class of committed instruction
system.cpu0.commit.op_class_0::SimdFloatCvt            0      0.00%     79.97% # Class of committed instruction
system.cpu0.commit.op_class_0::SimdFloatDiv            0      0.00%     79.97% # Class of committed instruction
system.cpu0.commit.op_class_0::SimdFloatMisc            0      0.00%     79.97% # Class of committed instruction
system.cpu0.commit.op_class_0::SimdFloatMult            0      0.00%     79.97% # Class of committed instruction
system.cpu0.commit.op_class_0::SimdFloatMultAcc            0      0.00%     79.97% # Class of committed instruction
system.cpu0.commit.op_class_0::SimdFloatSqrt            0      0.00%     79.97% # Class of committed instruction
system.cpu0.commit.op_class_0::MemRead         511369     19.12%     99.09% # Class of committed instruction
system.cpu0.commit.op_class_0::MemWrite         22968      0.86%     99.95% # Class of committed instruction
system.cpu0.commit.op_class_0::FloatMemRead         1338      0.05%    100.00% # Class of committed instruction
system.cpu0.commit.op_class_0::FloatMemWrite            0      0.00%    100.00% # Class of committed instruction
system.cpu0.commit.op_class_0::IprAccess            0      0.00%    100.00% # Class of committed instruction
system.cpu0.commit.op_class_0::InstPrefetch            0      0.00%    100.00% # Class of committed instruction
system.cpu0.commit.op_class_0::total          2673959                       # Class of committed instruction
system.cpu0.commit.bw_lim_events                41222                       # number cycles where commit BW limit reached
system.cpu0.rob.rob_reads                    37233986                       # The number of ROB reads
system.cpu0.rob.rob_writes                   15668802                       # The number of ROB writes
system.cpu0.timesIdled                            561                       # Number of times that the entire CPU went into an idle state and unscheduled itself
system.cpu0.idleCycles                          73265                       # Total number of cycles that the CPU has spent unscheduled due to idling
system.cpu0.committedInsts                    1338164                       # Number of Instructions Simulated
system.cpu0.committedOps                      2673959                       # Number of Ops (including micro ops) Simulated
system.cpu0.cpi                             22.818345                       # CPI: Cycles Per Instruction
system.cpu0.cpi_total                       22.818345                       # CPI: Total CPI of All Threads
system.cpu0.ipc                              0.043824                       # IPC: Instructions Per Cycle
system.cpu0.ipc_total                        0.043824                       # IPC: Total IPC of All Threads
system.cpu0.int_regfile_reads                 5088274                       # number of integer regfile reads
system.cpu0.int_regfile_writes                4430393                       # number of integer regfile writes
system.cpu0.fp_regfile_reads                    24000                       # number of floating regfile reads
system.cpu0.fp_regfile_writes                   11952                       # number of floating regfile writes
system.cpu0.cc_regfile_reads                  3226459                       # number of cc regfile reads
system.cpu0.cc_regfile_writes                 1368422                       # number of cc regfile writes
system.cpu0.misc_regfile_reads                2761523                       # number of misc regfile reads
system.cpu0.dcache.tags.pwrStateResidencyTicks::UNDEFINED  15267344125                       # Cumulative time (in ticks) in various power states
system.cpu0.dcache.tags.replacements           272084                       # number of replacements
system.cpu0.dcache.tags.tagsinuse                1024                       # Cycle average of tags in use
system.cpu0.dcache.tags.total_refs             334493                       # Total number of references to valid blocks.
system.cpu0.dcache.tags.sampled_refs           272084                       # Sample count of references to valid blocks.
system.cpu0.dcache.tags.avg_refs             1.229374                       # Average number of references to valid blocks.
system.cpu0.dcache.tags.warmup_cycle                0                       # Cycle when the warmup percentage was hit.
system.cpu0.dcache.tags.occ_blocks::cpu0.data         1024                       # Average occupied blocks per requestor
system.cpu0.dcache.tags.occ_percent::cpu0.data            1                       # Average percentage of cache occupancy
system.cpu0.dcache.tags.occ_percent::total            1                       # Average percentage of cache occupancy
system.cpu0.dcache.tags.occ_task_id_blocks::1024         1024                       # Occupied blocks per task id
system.cpu0.dcache.tags.age_task_id_blocks_1024::0          127                       # Occupied blocks per task id
system.cpu0.dcache.tags.age_task_id_blocks_1024::1          793                       # Occupied blocks per task id
system.cpu0.dcache.tags.age_task_id_blocks_1024::2          104                       # Occupied blocks per task id
system.cpu0.dcache.tags.occ_task_id_percent::1024            1                       # Percentage of cache occupancy per task id
system.cpu0.dcache.tags.tag_accesses          3530744                       # Number of tag accesses
system.cpu0.dcache.tags.data_accesses         3530744                       # Number of data accesses
system.cpu0.dcache.pwrStateResidencyTicks::UNDEFINED  15267344125                       # Cumulative time (in ticks) in various power states
system.cpu0.dcache.ReadReq_hits::cpu0.data       310277                       # number of ReadReq hits
system.cpu0.dcache.ReadReq_hits::total         310277                       # number of ReadReq hits
system.cpu0.dcache.WriteReq_hits::cpu0.data        22025                       # number of WriteReq hits
system.cpu0.dcache.WriteReq_hits::total         22025                       # number of WriteReq hits
system.cpu0.dcache.demand_hits::cpu0.data       332302                       # number of demand (read+write) hits
system.cpu0.dcache.demand_hits::total          332302                       # number of demand (read+write) hits
system.cpu0.dcache.overall_hits::cpu0.data       332302                       # number of overall hits
system.cpu0.dcache.overall_hits::total         332302                       # number of overall hits
system.cpu0.dcache.ReadReq_misses::cpu0.data       481420                       # number of ReadReq misses
system.cpu0.dcache.ReadReq_misses::total       481420                       # number of ReadReq misses
system.cpu0.dcache.WriteReq_misses::cpu0.data          943                       # number of WriteReq misses
system.cpu0.dcache.WriteReq_misses::total          943                       # number of WriteReq misses
system.cpu0.dcache.demand_misses::cpu0.data       482363                       # number of demand (read+write) misses
system.cpu0.dcache.demand_misses::total        482363                       # number of demand (read+write) misses
system.cpu0.dcache.overall_misses::cpu0.data       482363                       # number of overall misses
system.cpu0.dcache.overall_misses::total       482363                       # number of overall misses
system.cpu0.dcache.ReadReq_miss_latency::cpu0.data  34826979000                       # number of ReadReq miss cycles
system.cpu0.dcache.ReadReq_miss_latency::total  34826979000                       # number of ReadReq miss cycles
system.cpu0.dcache.WriteReq_miss_latency::cpu0.data     33110999                       # number of WriteReq miss cycles
system.cpu0.dcache.WriteReq_miss_latency::total     33110999                       # number of WriteReq miss cycles
system.cpu0.dcache.demand_miss_latency::cpu0.data  34860089999                       # number of demand (read+write) miss cycles
system.cpu0.dcache.demand_miss_latency::total  34860089999                       # number of demand (read+write) miss cycles
system.cpu0.dcache.overall_miss_latency::cpu0.data  34860089999                       # number of overall miss cycles
system.cpu0.dcache.overall_miss_latency::total  34860089999                       # number of overall miss cycles
system.cpu0.dcache.ReadReq_accesses::cpu0.data       791697                       # number of ReadReq accesses(hits+misses)
system.cpu0.dcache.ReadReq_accesses::total       791697                       # number of ReadReq accesses(hits+misses)
system.cpu0.dcache.WriteReq_accesses::cpu0.data        22968                       # number of WriteReq accesses(hits+misses)
system.cpu0.dcache.WriteReq_accesses::total        22968                       # number of WriteReq accesses(hits+misses)
system.cpu0.dcache.demand_accesses::cpu0.data       814665                       # number of demand (read+write) accesses
system.cpu0.dcache.demand_accesses::total       814665                       # number of demand (read+write) accesses
system.cpu0.dcache.overall_accesses::cpu0.data       814665                       # number of overall (read+write) accesses
system.cpu0.dcache.overall_accesses::total       814665                       # number of overall (read+write) accesses
system.cpu0.dcache.ReadReq_miss_rate::cpu0.data     0.608086                       # miss rate for ReadReq accesses
system.cpu0.dcache.ReadReq_miss_rate::total     0.608086                       # miss rate for ReadReq accesses
system.cpu0.dcache.WriteReq_miss_rate::cpu0.data     0.041057                       # miss rate for WriteReq accesses
system.cpu0.dcache.WriteReq_miss_rate::total     0.041057                       # miss rate for WriteReq accesses
system.cpu0.dcache.demand_miss_rate::cpu0.data     0.592100                       # miss rate for demand accesses
system.cpu0.dcache.demand_miss_rate::total     0.592100                       # miss rate for demand accesses
system.cpu0.dcache.overall_miss_rate::cpu0.data     0.592100                       # miss rate for overall accesses
system.cpu0.dcache.overall_miss_rate::total     0.592100                       # miss rate for overall accesses
system.cpu0.dcache.ReadReq_avg_miss_latency::cpu0.data 72342.193926                       # average ReadReq miss latency
system.cpu0.dcache.ReadReq_avg_miss_latency::total 72342.193926                       # average ReadReq miss latency
system.cpu0.dcache.WriteReq_avg_miss_latency::cpu0.data 35112.406151                       # average WriteReq miss latency
[...]
system.l2.ReadSharedReq_hits::cpu0.data         82284                       # number of ReadSharedReq hits
system.l2.ReadSharedReq_hits::total             82284                       # number of ReadSharedReq hits
system.l2.demand_hits::cpu0.data                83006                       # number of demand (read+write) hits
system.l2.demand_hits::total                    83006                       # number of demand (read+write) hits
system.l2.overall_hits::cpu0.data               83006                       # number of overall hits
system.l2.overall_hits::total                   83006                       # number of overall hits
system.l2.ReadExReq_misses::cpu0.data             215                       # number of ReadExReq misses
system.l2.ReadExReq_misses::total                 215                       # number of ReadExReq misses
system.l2.ReadSharedReq_misses::cpu0.data       188863                       # number of ReadSharedReq misses
system.l2.ReadSharedReq_misses::total          188863                       # number of ReadSharedReq misses
system.l2.demand_misses::cpu0.data             189078                       # number of demand (read+write) misses
system.l2.demand_misses::total                 189078                       # number of demand (read+write) misses
system.l2.overall_misses::cpu0.data            189078                       # number of overall misses
system.l2.overall_misses::total                189078                       # number of overall misses
system.l2.ReadExReq_miss_latency::cpu0.data     22511000                       # number of ReadExReq miss cycles
system.l2.ReadExReq_miss_latency::total      22511000                       # number of ReadExReq miss cycles
system.l2.ReadSharedReq_miss_latency::cpu0.data  17956446000                       # number of ReadSharedReq miss cycles
system.l2.ReadSharedReq_miss_latency::total  17956446000                       # number of ReadSharedReq miss cycles
system.l2.demand_miss_latency::cpu0.data  17978957000                       # number of demand (read+write) miss cycles
system.l2.demand_miss_latency::total      17978957000                       # number of demand (read+write) miss cycles
system.l2.overall_miss_latency::cpu0.data  17978957000                       # number of overall miss cycles
system.l2.overall_miss_latency::total     17978957000                       # number of overall miss cycles
system.l2.WritebackDirty_accesses::writebacks         2492                       # number of WritebackDirty accesses(hits+misses)
system.l2.WritebackDirty_accesses::total         2492                       # number of WritebackDirty accesses(hits+misses)
system.l2.ReadExReq_accesses::cpu0.data           937                       # number of ReadExReq accesses(hits+misses)
system.l2.ReadExReq_accesses::total               937                       # number of ReadExReq accesses(hits+misses)
system.l2.ReadSharedReq_accesses::cpu0.data       271147                       # number of ReadSharedReq accesses(hits+misses)
system.l2.ReadSharedReq_accesses::total        271147                       # number of ReadSharedReq accesses(hits+misses)
system.l2.demand_accesses::cpu0.data           272084                       # number of demand (read+write) accesses
system.l2.demand_accesses::total               272084                       # number of demand (read+write) accesses
system.l2.overall_accesses::cpu0.data          272084                       # number of overall (read+write) accesses
system.l2.overall_accesses::total              272084                       # number of overall (read+write) accesses
system.l2.ReadExReq_miss_rate::cpu0.data     0.229456                       # miss rate for ReadExReq accesses
system.l2.ReadExReq_miss_rate::total         0.229456                       # miss rate for ReadExReq accesses
system.l2.ReadSharedReq_miss_rate::cpu0.data     0.696534                       # miss rate for ReadSharedReq accesses
system.l2.ReadSharedReq_miss_rate::total     0.696534                       # miss rate for ReadSharedReq accesses
system.l2.demand_miss_rate::cpu0.data        0.694925                       # miss rate for demand accesses
system.l2.demand_miss_rate::total            0.694925                       # miss rate for demand accesses
system.l2.overall_miss_rate::cpu0.data       0.694925                       # miss rate for overall accesses
system.l2.overall_miss_rate::total           0.694925                       # miss rate for overall accesses
system.l2.ReadExReq_avg_miss_latency::cpu0.data 104702.325581                       # average ReadExReq miss latency
system.l2.ReadExReq_avg_miss_latency::total 104702.325581                       # average ReadExReq miss latency
system.l2.ReadSharedReq_avg_miss_latency::cpu0.data 95076.568730                       # average ReadSharedReq miss latency
system.l2.ReadSharedReq_avg_miss_latency::total 95076.568730                       # average ReadSharedReq miss latency
system.l2.demand_avg_miss_latency::cpu0.data 95087.514148                       # average overall miss latency
system.l2.demand_avg_miss_latency::total 95087.514148                       # average overall miss latency
system.l2.overall_avg_miss_latency::cpu0.data 95087.514148                       # average overall miss latency
system.l2.overall_avg_miss_latency::total 95087.514148                       # average overall miss latency
system.l2.blocked_cycles::no_mshrs                  0                       # number of cycles access was blocked
system.l2.blocked_cycles::no_targets                0                       # number of cycles access was blocked
system.l2.blocked::no_mshrs                         0                       # number of cycles access was blocked
system.l2.blocked::no_targets                       0                       # number of cycles access was blocked
system.l2.avg_blocked_cycles::no_mshrs            nan                       # average number of cycles each access was blocked
system.l2.avg_blocked_cycles::no_targets          nan                       # average number of cycles each access was blocked
system.l2.writebacks::writebacks                  320                       # number of writebacks
system.l2.writebacks::total                       320                       # number of writebacks
system.l2.ReadExReq_mshr_misses::cpu0.data          215                       # number of ReadExReq MSHR misses
system.l2.ReadExReq_mshr_misses::total            215                       # number of ReadExReq MSHR misses
system.l2.ReadSharedReq_mshr_misses::cpu0.data       188863                       # number of ReadSharedReq MSHR misses
system.l2.ReadSharedReq_mshr_misses::total       188863                       # number of ReadSharedReq MSHR misses
system.l2.demand_mshr_misses::cpu0.data        189078                       # number of demand (read+write) MSHR misses
system.l2.demand_mshr_misses::total            189078                       # number of demand (read+write) MSHR misses
system.l2.overall_mshr_misses::cpu0.data       189078                       # number of overall MSHR misses
system.l2.overall_mshr_misses::total           189078                       # number of overall MSHR misses
system.l2.ReadExReq_mshr_miss_latency::cpu0.data     20361000                       # number of ReadExReq MSHR miss cycles
system.l2.ReadExReq_mshr_miss_latency::total     20361000                       # number of ReadExReq MSHR miss cycles
system.l2.ReadSharedReq_mshr_miss_latency::cpu0.data  16067826000                       # number of ReadSharedReq MSHR miss cycles
system.l2.ReadSharedReq_mshr_miss_latency::total  16067826000                       # number of ReadSharedReq MSHR miss cycles
system.l2.demand_mshr_miss_latency::cpu0.data  16088187000                       # number of demand (read+write) MSHR miss cycles
system.l2.demand_mshr_miss_latency::total  16088187000                       # number of demand (read+write) MSHR miss cycles
system.l2.overall_mshr_miss_latency::cpu0.data  16088187000                       # number of overall MSHR miss cycles
system.l2.overall_mshr_miss_latency::total  16088187000                       # number of overall MSHR miss cycles
system.l2.ReadExReq_mshr_miss_rate::cpu0.data     0.229456                       # mshr miss rate for ReadExReq accesses
system.l2.ReadExReq_mshr_miss_rate::total     0.229456                       # mshr miss rate for ReadExReq accesses
system.l2.ReadSharedReq_mshr_miss_rate::cpu0.data     0.696534                       # mshr miss rate for ReadSharedReq accesses
system.l2.ReadSharedReq_mshr_miss_rate::total     0.696534                       # mshr miss rate for ReadSharedReq accesses
system.l2.demand_mshr_miss_rate::cpu0.data     0.694925                       # mshr miss rate for demand accesses
system.l2.demand_mshr_miss_rate::total       0.694925                       # mshr miss rate for demand accesses
system.l2.overall_mshr_miss_rate::cpu0.data     0.694925                       # mshr miss rate for overall accesses
system.l2.overall_mshr_miss_rate::total      0.694925                       # mshr miss rate for overall accesses
system.l2.ReadExReq_avg_mshr_miss_latency::cpu0.data 94702.325581                       # average ReadExReq mshr miss latency
system.l2.ReadExReq_avg_mshr_miss_latency::total 94702.325581                       # average ReadExReq mshr miss latency
system.l2.ReadSharedReq_avg_mshr_miss_latency::cpu0.data 85076.621678                       # average ReadSharedReq mshr miss latency
system.l2.ReadSharedReq_avg_mshr_miss_latency::total 85076.621678                       # average ReadSharedReq mshr miss latency
system.l2.demand_avg_mshr_miss_latency::cpu0.data 85087.567036                       # average overall mshr miss latency
system.l2.demand_avg_mshr_miss_latency::total 85087.567036                       # average overall mshr miss latency
system.l2.overall_avg_mshr_miss_latency::cpu0.data 85087.567036                       # average overall mshr miss latency
system.l2.overall_avg_mshr_miss_latency::total 85087.567036                       # average overall mshr miss latency
system.membus.snoop_filter.tot_requests        378153                       # Total number of requests made to the snoop filter.
system.membus.snoop_filter.hit_single_requests       189077                       # Number of requests hitting in the snoop filter with a single holder of the requested data.
system.membus.snoop_filter.hit_multi_requests            0                       # Number of requests hitting in the snoop filter with multiple (>1) holders of the requested data.
system.membus.snoop_filter.tot_snoops               0                       # Total number of snoops made to the snoop filter.
system.membus.snoop_filter.hit_single_snoops            0                       # Number of snoops hitting in the snoop filter with a single holder of the requested data.
system.membus.snoop_filter.hit_multi_snoops            0                       # Number of snoops hitting in the snoop filter with multiple (>1) holders of the requested data.
system.membus.pwrStateResidencyTicks::UNDEFINED  15267344125                       # Cumulative time (in ticks) in various power states
system.membus.trans_dist::ReadResp             188862                       # Transaction distribution
system.membus.trans_dist::WritebackDirty          320                       # Transaction distribution
system.membus.trans_dist::CleanEvict           188755                       # Transaction distribution
system.membus.trans_dist::ReadExReq               215                       # Transaction distribution
system.membus.trans_dist::ReadExResp              215                       # Transaction distribution
system.membus.trans_dist::ReadSharedReq        188863                       # Transaction distribution
system.membus.pkt_count_system.l2.mem_side::system.mem_ctrls.port       567230                       # Packet count per connected master and slave (bytes)
system.membus.pkt_count_system.l2.mem_side::total       567230                       # Packet count per connected master and slave (bytes)
system.membus.pkt_count::total                 567230                       # Packet count per connected master and slave (bytes)
system.membus.pkt_size_system.l2.mem_side::system.mem_ctrls.port     12121408                       # Cumulative packet size per connected master and slave (bytes)
system.membus.pkt_size_system.l2.mem_side::total     12121408                       # Cumulative packet size per connected master and slave (bytes)
system.membus.pkt_size::total                12121408                       # Cumulative packet size per connected master and slave (bytes)
system.membus.snoops                                0                       # Total snoops (count)
system.membus.snoopTraffic                          0                       # Total snoop traffic (bytes)
system.membus.snoop_fanout::samples            189078                       # Request fanout histogram
system.membus.snoop_fanout::mean                    0                       # Request fanout histogram
system.membus.snoop_fanout::stdev                   0                       # Request fanout histogram
system.membus.snoop_fanout::underflows              0      0.00%      0.00% # Request fanout histogram
system.membus.snoop_fanout::0                  189078    100.00%    100.00% # Request fanout histogram
system.membus.snoop_fanout::1                       0      0.00%    100.00% # Request fanout histogram
system.membus.snoop_fanout::overflows               0      0.00%    100.00% # Request fanout histogram
system.membus.snoop_fanout::min_value               0                       # Request fanout histogram
system.membus.snoop_fanout::max_value               0                       # Request fanout histogram
system.membus.snoop_fanout::total              189078                       # Request fanout histogram
system.membus.reqLayer8.occupancy           443957000                       # Layer occupancy (ticks)
system.membus.reqLayer8.utilization               2.9                       # Layer utilization (%)
system.membus.respLayer1.occupancy         1023741000                       # Layer occupancy (ticks)
system.membus.respLayer1.utilization              6.7                       # Layer utilization (%)
system.tol2bus.snoop_filter.tot_requests       544168                       # Total number of requests made to the snoop filter.
system.tol2bus.snoop_filter.hit_single_requests       272084                       # Number of requests hitting in the snoop filter with a single holder of the requested data.
system.tol2bus.snoop_filter.hit_multi_requests          304                       # Number of requests hitting in the snoop filter with multiple (>1) holders of the requested data.
system.tol2bus.snoop_filter.tot_snoops              2                       # Total number of snoops made to the snoop filter.
system.tol2bus.snoop_filter.hit_single_snoops            2                       # Number of snoops hitting in the snoop filter with a single holder of the requested data.
system.tol2bus.snoop_filter.hit_multi_snoops            0                       # Number of snoops hitting in the snoop filter with multiple (>1) holders of the requested data.
system.tol2bus.pwrStateResidencyTicks::UNDEFINED  15267344125                       # Cumulative time (in ticks) in various power states
system.tol2bus.trans_dist::ReadResp            271146                       # Transaction distribution
system.tol2bus.trans_dist::WritebackDirty         2812                       # Transaction distribution
system.tol2bus.trans_dist::CleanEvict          458349                       # Transaction distribution
system.tol2bus.trans_dist::ReadExReq              937                       # Transaction distribution
system.tol2bus.trans_dist::ReadExResp             937                       # Transaction distribution
system.tol2bus.trans_dist::ReadSharedReq       271147                       # Transaction distribution
system.tol2bus.pkt_count_system.cpu0.dcache.mem_side::system.l2.cpu_side       816251                       # Packet count per connected master and slave (bytes)
system.tol2bus.pkt_count::total                816251                       # Packet count per connected master and slave (bytes)
system.tol2bus.pkt_size_system.cpu0.dcache.mem_side::system.l2.cpu_side     17572800                       # Cumulative packet size per connected master and slave (bytes)
system.tol2bus.pkt_size::total               17572800                       # Cumulative packet size per connected master and slave (bytes)
system.tol2bus.snoops                          189077                       # Total snoops (count)
system.tol2bus.snoopTraffic                     20480                       # Total snoop traffic (bytes)
system.tol2bus.snoop_fanout::samples           461161                       # Request fanout histogram
system.tol2bus.snoop_fanout::mean            0.000664                       # Request fanout histogram
system.tol2bus.snoop_fanout::stdev           0.025751                       # Request fanout histogram
system.tol2bus.snoop_fanout::underflows             0      0.00%      0.00% # Request fanout histogram
system.tol2bus.snoop_fanout::0                 460855     99.93%     99.93% # Request fanout histogram
system.tol2bus.snoop_fanout::1                    306      0.07%    100.00% # Request fanout histogram
system.tol2bus.snoop_fanout::2                      0      0.00%    100.00% # Request fanout histogram
system.tol2bus.snoop_fanout::3                      0      0.00%    100.00% # Request fanout histogram
system.tol2bus.snoop_fanout::4                      0      0.00%    100.00% # Request fanout histogram
system.tol2bus.snoop_fanout::5                      0      0.00%    100.00% # Request fanout histogram
system.tol2bus.snoop_fanout::6                      0      0.00%    100.00% # Request fanout histogram
system.tol2bus.snoop_fanout::7                      0      0.00%    100.00% # Request fanout histogram
system.tol2bus.snoop_fanout::8                      0      0.00%    100.00% # Request fanout histogram
system.tol2bus.snoop_fanout::9                      0      0.00%    100.00% # Request fanout histogram
system.tol2bus.snoop_fanout::10                     0      0.00%    100.00% # Request fanout histogram
system.tol2bus.snoop_fanout::11                     0      0.00%    100.00% # Request fanout histogram
system.tol2bus.snoop_fanout::12                     0      0.00%    100.00% # Request fanout histogram
system.tol2bus.snoop_fanout::13                     0      0.00%    100.00% # Request fanout histogram
system.tol2bus.snoop_fanout::14                     0      0.00%    100.00% # Request fanout histogram
system.tol2bus.snoop_fanout::15                     0      0.00%    100.00% # Request fanout histogram
system.tol2bus.snoop_fanout::16                     0      0.00%    100.00% # Request fanout histogram
system.tol2bus.snoop_fanout::overflows              0      0.00%    100.00% # Request fanout histogram
system.tol2bus.snoop_fanout::min_value              0                       # Request fanout histogram
system.tol2bus.snoop_fanout::max_value              1                       # Request fanout histogram
system.tol2bus.snoop_fanout::total             461161                       # Request fanout histogram
system.tol2bus.reqLayer0.occupancy          274576000                       # Layer occupancy (ticks)
system.tol2bus.reqLayer0.utilization              1.8                       # Layer utilization (%)
system.tol2bus.respLayer1.occupancy         408124500                       # Layer occupancy (ticks)
system.tol2bus.respLayer1.utilization             2.7                       # Layer utilization (%)

---------- End Simulation Statistics   ----------
