
---------- Begin Simulation Statistics ----------
sim_seconds                                  0.015267                       # Number of seconds simulated
sim_ticks                                 15267344125                       # Number of ticks simulated
final_tick                               6091670305875                       # Number of ticks from beginning of simulation (restored from checkpoints and never reset)
sim_freq                                 1000000000000                       # Frequency of simulated ticks
host_inst_rate                               76408074                       # Simulator instruction rate (inst/s)
host_op_rate                                142232776                       # Simulator op (including micro ops) rate (op/s)
host_tick_rate                              196797844                       # Simulator tick rate (ticks/s)
host_mem_usage                                2332684                       # Number of bytes of host memory used
host_seconds                                    77.58                       # Real time elapsed on the host
sim_insts                                  5927645105                       # Number of instructions simulated
sim_ops                                   11034247989                       # Number of ops (including micro ops) simulated
system.voltage_domain.voltage                       1                       # Voltage in Volts
system.clk_domain.clock                          1000                       # Clock period in ticks
system.mem_ctrls.pwrStateResidencyTicks::UNDEFINED  15267344125                       # Cumulative time (in ticks) in various power states
system.mem_ctrls.bytes_read::cpu0.data       11895168                       # Number of bytes read from this memory
system.mem_ctrls.bytes_read::total           11895168                       # Number of bytes read from this memory
system.mem_ctrls.bytes_written::writebacks        23104                       # Number of bytes written to this memory
system.mem_ctrls.bytes_written::total           23104                       # Number of bytes written to this memory
system.mem_ctrls.num_reads::cpu0.data          185862                       # Number of read requests responded to by this memory
system.mem_ctrls.num_reads::total              185862                       # Number of read requests responded to by this memory
system.mem_ctrls.num_writes::writebacks           361                       # Number of write requests responded to by this memory
system.mem_ctrls.num_writes::total                361                       # Number of write requests responded to by this memory
system.mem_ctrls.bw_read::cpu0.data         779124902                       # Total read bandwidth from this memory (bytes/s)
system.mem_ctrls.bw_read::total             779124902                       # Total read bandwidth from this memory (bytes/s)
system.mem_ctrls.bw_write::writebacks         1513295                       # Write bandwidth from this memory (bytes/s)
system.mem_ctrls.bw_write::total              1513295                       # Write bandwidth from this memory (bytes/s)
system.mem_ctrls.bw_total::writebacks         1513295                       # Total bandwidth to/from this memory (bytes/s)
system.mem_ctrls.bw_total::cpu0.data        779124902                       # Total bandwidth to/from this memory (bytes/s)
system.mem_ctrls.bw_total::total            780638198                       # Total bandwidth to/from this memory (bytes/s)
system.mem_ctrls.readReqs                      185864                       # Number of read requests accepted
system.mem_ctrls.writeReqs                        361                       # Number of write requests accepted
system.mem_ctrls.readBursts                    185864                       # Number of DRAM read bursts, including those serviced by the write queue
system.mem_ctrls.writeBursts                      361                       # Number of DRAM write bursts, including those merged in the write queue
system.mem_ctrls.bytesReadDRAM               11891904                       # Total number of bytes read from DRAM
system.mem_ctrls.bytesReadWrQ                    3328                       # Total number of bytes read from write queue
system.mem_ctrls.bytesWritten                   23552                       # Total number of bytes written to DRAM
system.mem_ctrls.bytesReadSys                11895296                       # Total read bytes from the system interface side
system.mem_ctrls.bytesWrittenSys                23104                       # Total written bytes from the system interface side
system.mem_ctrls.servicedByWrQ                     52                       # Number of DRAM read bursts serviced by the write queue
system.mem_ctrls.mergedWrBursts                     0                       # Number of DRAM write bursts merged with an existing one
system.mem_ctrls.neitherReadNorWriteReqs            0                       # Number of requests that are neither read nor write
system.mem_ctrls.perBankRdBursts::0             11488                       # Per bank write bursts
system.mem_ctrls.perBankRdBursts::1             11591                       # Per bank write bursts
system.mem_ctrls.perBankRdBursts::2             11852                       # Per bank write bursts
system.mem_ctrls.perBankRdBursts::3             11630                       # Per bank write bursts
system.mem_ctrls.perBankRdBursts::4             11636                       # Per bank write bursts
system.mem_ctrls.perBankRdBursts::5             11409                       # Per bank write bursts
system.mem_ctrls.perBankRdBursts::6             11341                       # Per bank write bursts
system.mem_ctrls.perBankRdBursts::7             11273                       # Per bank write bursts
system.mem_ctrls.perBankRdBursts::8             11378                       # Per bank write bursts
system.mem_ctrls.perBankRdBursts::9             11317                       # Per bank write bursts
system.mem_ctrls.perBankRdBursts::10            11407                       # Per bank write bursts
system.mem_ctrls.perBankRdBursts::11            11554                       # Per bank write bursts
system.mem_ctrls.perBankRdBursts::12            12115                       # Per bank write bursts
system.mem_ctrls.perBankRdBursts::13            11924                       # Per bank write bursts
system.mem_ctrls.perBankRdBursts::14            11968                       # Per bank write bursts
system.mem_ctrls.perBankRdBursts::15            11928                       # Per bank write bursts
system.mem_ctrls.perBankWrBursts::0                 0                       # Per bank write bursts
system.mem_ctrls.perBankWrBursts::1                 0                       # Per bank write bursts
system.mem_ctrls.perBankWrBursts::2                29                       # Per bank write bursts
system.mem_ctrls.perBankWrBursts::3                87                       # Per bank write bursts
system.mem_ctrls.perBankWrBursts::4               118                       # Per bank write bursts
system.mem_ctrls.perBankWrBursts::5                28                       # Per bank write bursts
system.mem_ctrls.perBankWrBursts::6                 0                       # Per bank write bursts
system.mem_ctrls.perBankWrBursts::7                 0                       # Per bank write bursts
system.mem_ctrls.perBankWrBursts::8                 0                       # Per bank write bursts
system.mem_ctrls.perBankWrBursts::9                 0                       # Per bank write bursts
system.mem_ctrls.perBankWrBursts::10                0                       # Per bank write bursts
system.mem_ctrls.perBankWrBursts::11                0                       # Per bank write bursts
system.mem_ctrls.perBankWrBursts::12               95                       # Per bank write bursts
system.mem_ctrls.perBankWrBursts::13               10                       # Per bank write bursts
system.mem_ctrls.perBankWrBursts::14                1                       # Per bank write bursts
system.mem_ctrls.perBankWrBursts::15                0                       # Per bank write bursts
system.mem_ctrls.numRdRetry                         0                       # Number of times read queue was full causing retry
system.mem_ctrls.numWrRetry                         0                       # Number of times write queue was full causing retry
system.mem_ctrls.totGap                   15268371500                       # Total gap between requests
system.mem_ctrls.readPktSize::0                     0                       # Read request sizes (log2)
system.mem_ctrls.readPktSize::1                     0                       # Read request sizes (log2)
system.mem_ctrls.readPktSize::2                     0                       # Read request sizes (log2)
system.mem_ctrls.readPktSize::3                     0                       # Read request sizes (log2)
system.mem_ctrls.readPktSize::4                     0                       # Read request sizes (log2)
system.mem_ctrls.readPktSize::5                     0                       # Read request sizes (log2)
system.mem_ctrls.readPktSize::6                185864                       # Read request sizes (log2)
system.mem_ctrls.writePktSize::0                    0                       # Write request sizes (log2)
system.mem_ctrls.writePktSize::1                    0                       # Write request sizes (log2)
system.mem_ctrls.writePktSize::2                    0                       # Write request sizes (log2)
system.mem_ctrls.writePktSize::3                    0                       # Write request sizes (log2)
system.mem_ctrls.writePktSize::4                    0                       # Write request sizes (log2)
system.mem_ctrls.writePktSize::5                    0                       # Write request sizes (log2)
system.mem_ctrls.writePktSize::6                  361                       # Write request sizes (log2)
system.mem_ctrls.rdQLenPdf::0                  141248                       # What read queue length does an incoming req see
system.mem_ctrls.rdQLenPdf::1                   41440                       # What read queue length does an incoming req see
system.mem_ctrls.rdQLenPdf::2                    3049                       # What read queue length does an incoming req see
system.mem_ctrls.rdQLenPdf::3                      75                       # What read queue length does an incoming req see
system.mem_ctrls.rdQLenPdf::4                       0                       # What read queue length does an incoming req see
system.mem_ctrls.rdQLenPdf::5                       0                       # What read queue length does an incoming req see
system.mem_ctrls.rdQLenPdf::6                       0                       # What read queue length does an incoming req see
system.mem_ctrls.rdQLenPdf::7                       0                       # What read queue length does an incoming req see
system.mem_ctrls.rdQLenPdf::8                       0                       # What read queue length does an incoming req see
system.mem_ctrls.rdQLenPdf::9                       0                       # What read queue length does an incoming req see
system.mem_ctrls.rdQLenPdf::10                      0                       # What read queue length does an incoming req see
system.mem_ctrls.rdQLenPdf::11                      0                       # What read queue length does an incoming req see
system.mem_ctrls.rdQLenPdf::12                      0                       # What read queue length does an incoming req see
system.mem_ctrls.rdQLenPdf::13                      0                       # What read queue length does an incoming req see
system.mem_ctrls.rdQLenPdf::14                      0                       # What read queue length does an incoming req see
system.mem_ctrls.rdQLenPdf::15                      0                       # What read queue length does an incoming req see
system.mem_ctrls.rdQLenPdf::16                      0                       # What read queue length does an incoming req see
system.mem_ctrls.rdQLenPdf::17                      0                       # What read queue length does an incoming req see
system.mem_ctrls.rdQLenPdf::18                      0                       # What read queue length does an incoming req see
system.mem_ctrls.rdQLenPdf::19                      0                       # What read queue length does an incoming req see
system.mem_ctrls.rdQLenPdf::20                      0                       # What read queue length does an incoming req see
system.mem_ctrls.rdQLenPdf::21                      0                       # What read queue length does an incoming req see
system.mem_ctrls.rdQLenPdf::22                      0                       # What read queue length does an incoming req see
system.mem_ctrls.rdQLenPdf::23                      0                       # What read queue length does an incoming req see
system.mem_ctrls.rdQLenPdf::24                      0                       # What read queue length does an incoming req see
system.mem_ctrls.rdQLenPdf::25                      0                       # What read queue length does an incoming req see
system.mem_ctrls.rdQLenPdf::26                      0                       # What read queue length does an incoming req see
system.mem_ctrls.rdQLenPdf::27                      0                       # What read queue length does an incoming req see
system.mem_ctrls.rdQLenPdf::28                      0                       # What read queue length does an incoming req see
system.mem_ctrls.rdQLenPdf::29                      0                       # What read queue length does an incoming req see
system.mem_ctrls.rdQLenPdf::30                      0                       # What read queue length does an incoming req see
system.mem_ctrls.rdQLenPdf::31                      0                       # What read queue length does an incoming req see
system.mem_ctrls.wrQLenPdf::0                       0                       # What write queue length does an incoming req see
system.mem_ctrls.wrQLenPdf::1                       0                       # What write queue length does an incoming req see
system.mem_ctrls.wrQLenPdf::2                       0                       # What write queue length does an incoming req see
system.mem_ctrls.wrQLenPdf::3                       0                       # What write queue length does an incoming req see
system.mem_ctrls.wrQLenPdf::4                       0                       # What write queue length does an incoming req see
system.mem_ctrls.wrQLenPdf::5                       0                       # What write queue length does an incoming req see
system.mem_ctrls.wrQLenPdf::6                       0                       # What write queue length does an incoming req see
system.mem_ctrls.wrQLenPdf::7                       0                       # What write queue length does an incoming req see
system.mem_ctrls.wrQLenPdf::8                       0                       # What write queue length does an incoming req see
system.mem_ctrls.wrQLenPdf::9                       0                       # What write queue length does an incoming req see
system.mem_ctrls.wrQLenPdf::10                      0                       # What write queue length does an incoming req see
system.mem_ctrls.wrQLenPdf::11                      0                       # What write queue length does an incoming req see
system.mem_ctrls.wrQLenPdf::12                      0                       # What write queue length does an incoming req see
system.mem_ctrls.wrQLenPdf::13                      0                       # What write queue length does an incoming req see
system.mem_ctrls.wrQLenPdf::14                      0                       # What write queue length does an incoming req see
system.mem_ctrls.wrQLenPdf::15                      0                       # What write queue length does an incoming req see
system.mem_ctrls.wrQLenPdf::16                      0                       # What write queue length does an incoming req see
system.mem_ctrls.wrQLenPdf::17                     21                       # What write queue length does an incoming req see
system.mem_ctrls.wrQLenPdf::18                     22                       # What write queue length does an incoming req see
system.mem_ctrls.wrQLenPdf::19                     22                       # What write queue length does an incoming req see
system.mem_ctrls.wrQLenPdf::20                     22                       # What write queue length does an incoming req see
system.mem_ctrls.wrQLenPdf::21                     22                       # What write queue length does an incoming req see
system.mem_ctrls.wrQLenPdf::22                     22                       # What write queue length does an incoming req see
system.mem_ctrls.wrQLenPdf::23                     22                       # What write queue length does an incoming req see
system.mem_ctrls.wrQLenPdf::24                     22                       # What write queue length does an incoming req see
system.mem_ctrls.wrQLenPdf::25                     23                       # What write queue length does an incoming req see
system.mem_ctrls.wrQLenPdf::26                     23                       # What write queue length does an incoming req see
system.mem_ctrls.wrQLenPdf::27                     23                       # What write queue length does an incoming req see
system.mem_ctrls.wrQLenPdf::28                     24                       # What write queue length does an incoming req see
system.mem_ctrls.wrQLenPdf::29                     23                       # What write queue length does an incoming req see
system.mem_ctrls.wrQLenPdf::30                     24                       # What write queue length does an incoming req see
system.mem_ctrls.wrQLenPdf::31                     23                       # What write queue length does an incoming req see
system.mem_ctrls.wrQLenPdf::32                     23                       # What write queue length does an incoming req see
system.mem_ctrls.wrQLenPdf::33                      0                       # What write queue length does an incoming req see
system.mem_ctrls.wrQLenPdf::34                      0                       # What write queue length does an incoming req see
system.mem_ctrls.wrQLenPdf::35                      0                       # What write queue length does an incoming req see
system.mem_ctrls.wrQLenPdf::36                      0                       # What write queue length does an incoming req see
system.mem_ctrls.wrQLenPdf::37                      0                       # What write queue length does an incoming req see
system.mem_ctrls.wrQLenPdf::38                      0                       # What write queue length does an incoming req see
system.mem_ctrls.wrQLenPdf::39                      0                       # What write queue length does an incoming req see
system.mem_ctrls.wrQLenPdf::40                      0                       # What write queue length does an incoming req see
system.mem_ctrls.wrQLenPdf::41                      0                       # What write queue length does an incoming req see
system.mem_ctrls.wrQLenPdf::42                      0                       # What write queue length does an incoming req see
system.mem_ctrls.wrQLenPdf::43                      0                       # What write queue length does an incoming req see
system.mem_ctrls.wrQLenPdf::44                      0                       # What write queue length does an incoming req see
system.mem_ctrls.wrQLenPdf::45                      0                       # What write queue length does an incoming req see
system.mem_ctrls.wrQLenPdf::46                      0                       # What write queue length does an incoming req see
system.mem_ctrls.wrQLenPdf::47                      0                       # What write queue length does an incoming req see
system.mem_ctrls.wrQLenPdf::48                      0                       # What write queue length does an incoming req see
system.mem_ctrls.wrQLenPdf::49                      0                       # What write queue length does an incoming req see
system.mem_ctrls.wrQLenPdf::50                      0                       # What write queue length does an incoming req see
system.mem_ctrls.wrQLenPdf::51                      0                       # What write queue length does an incoming req see
system.mem_ctrls.wrQLenPdf::52                      0                       # What write queue length does an incoming req see
system.mem_ctrls.wrQLenPdf::53                      0                       # What write queue length does an incoming req see
system.mem_ctrls.wrQLenPdf::54                      0                       # What write queue length does an incoming req see
system.mem_ctrls.wrQLenPdf::55                      0                       # What write queue length does an incoming req see
system.mem_ctrls.wrQLenPdf::56                      0                       # What write queue length does an incoming req see
system.mem_ctrls.wrQLenPdf::57                      0                       # What write queue length does an incoming req see
system.mem_ctrls.wrQLenPdf::58                      0                       # What write queue length does an incoming req see
system.mem_ctrls.wrQLenPdf::59                      0                       # What write queue length does an incoming req see
system.mem_ctrls.wrQLenPdf::60                      0                       # What write queue length does an incoming req see
system.mem_ctrls.wrQLenPdf::61                      0                       # What write queue length does an incoming req see
system.mem_ctrls.wrQLenPdf::62                      0                       # What write queue length does an incoming req see
system.mem_ctrls.wrQLenPdf::63                      0                       # What write queue length does an incoming req see
system.mem_ctrls.bytesPerActivate::samples        97330                       # Bytes accessed per row activation
system.mem_ctrls.bytesPerActivate::mean    122.410767                       # Bytes accessed per row activation
system.mem_ctrls.bytesPerActivate::gmean   105.578848                       # Bytes accessed per row activation
system.mem_ctrls.bytesPerActivate::stdev    73.408221                       # Bytes accessed per row activation
system.mem_ctrls.bytesPerActivate::0-127        45668     46.92%     46.92% # Bytes accessed per row activation
system.mem_ctrls.bytesPerActivate::128-255        42302     43.46%     90.38% # Bytes accessed per row activation
system.mem_ctrls.bytesPerActivate::256-383         8194      8.42%     98.80% # Bytes accessed per row activation
system.mem_ctrls.bytesPerActivate::384-511         1037      1.07%     99.87% # Bytes accessed per row activation
system.mem_ctrls.bytesPerActivate::512-639          108      0.11%     99.98% # Bytes accessed per row activation
system.mem_ctrls.bytesPerActivate::640-767            9      0.01%     99.99% # Bytes accessed per row activation
system.mem_ctrls.bytesPerActivate::768-895            2      0.00%     99.99% # Bytes accessed per row activation
system.mem_ctrls.bytesPerActivate::896-1023            3      0.00%     99.99% # Bytes accessed per row activation
system.mem_ctrls.bytesPerActivate::1024-1151            7      0.01%    100.00% # Bytes accessed per row activation
system.mem_ctrls.bytesPerActivate::total        97330                       # Bytes accessed per row activation
system.mem_ctrls.rdPerTurnAround::samples           23                       # Reads before turning the bus around for writes
system.mem_ctrls.rdPerTurnAround::mean    8211.739130                       # Reads before turning the bus around for writes
system.mem_ctrls.rdPerTurnAround::gmean   7938.764311                       # Reads before turning the bus around for writes
system.mem_ctrls.rdPerTurnAround::stdev   2170.273217                       # Reads before turning the bus around for writes
system.mem_ctrls.rdPerTurnAround::4096-4607            1      4.35%      4.35% # Reads before turning the bus around for writes
system.mem_ctrls.rdPerTurnAround::5120-5631            2      8.70%     13.04% # Reads before turning the bus around for writes
system.mem_ctrls.rdPerTurnAround::5632-6143            1      4.35%     17.39% # Reads before turning the bus around for writes
system.mem_ctrls.rdPerTurnAround::6144-6655            1      4.35%     21.74% # Reads before turning the bus around for writes
system.mem_ctrls.rdPerTurnAround::6656-7167            3     13.04%     34.78% # Reads before turning the bus around for writes
system.mem_ctrls.rdPerTurnAround::7168-7679            3     13.04%     47.83% # Reads before turning the bus around for writes
system.mem_ctrls.rdPerTurnAround::7680-8191            2      8.70%     56.52% # Reads before turning the bus around for writes
system.mem_ctrls.rdPerTurnAround::8192-8703            1      4.35%     60.87% # Reads before turning the bus around for writes
system.mem_ctrls.rdPerTurnAround::8704-9215            2      8.70%     69.57% # Reads before turning the bus around for writes
system.mem_ctrls.rdPerTurnAround::9216-9727            2      8.70%     78.26% # Reads before turning the bus around for writes
system.mem_ctrls.rdPerTurnAround::9728-10239            1      4.35%     82.61% # Reads before turning the bus around for writes
system.mem_ctrls.rdPerTurnAround::10752-11263            3     13.04%     95.65% # Reads before turning the bus around for writes
system.mem_ctrls.rdPerTurnAround::12800-13311            1      4.35%    100.00% # Reads before turning the bus around for writes
system.mem_ctrls.rdPerTurnAround::total            23                       # Reads before turning the bus around for writes
system.mem_ctrls.wrPerTurnAround::samples           23                       # Writes before turning the bus around for reads
system.mem_ctrls.wrPerTurnAround::mean             16                       # Writes before turning the bus around for reads
system.mem_ctrls.wrPerTurnAround::gmean     16.000000                       # Writes before turning the bus around for reads
system.mem_ctrls.wrPerTurnAround::16               23    100.00%    100.00% # Writes before turning the bus around for reads
system.mem_ctrls.wrPerTurnAround::total            23                       # Writes before turning the bus around for reads
system.mem_ctrls.totQLat                   4647554750                       # Total ticks spent queuing
system.mem_ctrls.totMemAccLat              8131511000                       # Total ticks spent from burst creation until serviced by the DRAM
system.mem_ctrls.totBusLat                  929055000                       # Total ticks spent in databus transfers
system.mem_ctrls.avgQLat                     25012.13                       # Average queueing delay per DRAM burst
system.mem_ctrls.avgBusLat                    4999.97                       # Average bus latency per DRAM burst
system.mem_ctrls.avgMemAccLat                43762.03                       # Average memory access latency per DRAM burst
system.mem_ctrls.avgRdBW                       778.91                       # Average DRAM read bandwidth in MiByte/s
system.mem_ctrls.avgWrBW                         1.54                       # Average achieved write bandwidth in MiByte/s
system.mem_ctrls.avgRdBWSys                    779.13                       # Average system read bandwidth in MiByte/s
system.mem_ctrls.avgWrBWSys                      1.51                       # Average system write bandwidth in MiByte/s
system.mem_ctrls.peakBW                      12800.00                       # Theoretical peak bandwidth in MiByte/s
system.mem_ctrls.busUtil                         6.10                       # Data bus utilization in percentage
system.mem_ctrls.busUtilRead                     6.09                       # Data bus utilization in percentage for reads
system.mem_ctrls.busUtilWrite                    0.01                       # Data bus utilization in percentage for writes
system.mem_ctrls.avgRdQLen                       1.31                       # Average read queue length when enqueuing
system.mem_ctrls.avgWrQLen                      25.88                       # Average write queue length when enqueuing
system.mem_ctrls.readRowHits                    88531                       # Number of row buffer hits during reads
system.mem_ctrls.writeRowHits                     316                       # Number of row buffer hits during writes
system.mem_ctrls.readRowHitRate                 47.65                       # Row buffer hit rate for reads
system.mem_ctrls.writeRowHitRate                87.53                       # Row buffer hit rate for writes
system.mem_ctrls.avgGap                      81988.84                       # Average gap between requests
system.mem_ctrls.pageHitRate                    47.72                       # Row buffer hit rate, read and write combined
system.mem_ctrls_0.actEnergy                345768780                       # Energy for activate commands per rank (pJ)
system.mem_ctrls_0.preEnergy                183780465                       # Energy for precharge commands per rank (pJ)
system.mem_ctrls_0.readEnergy               658450800                       # Energy for read commands per rank (pJ)
system.mem_ctrls_0.writeEnergy                1367640                       # Energy for write commands per rank (pJ)
system.mem_ctrls_0.refreshEnergy         1205309040.000000                       # Energy for refresh commands per rank (pJ)
system.mem_ctrls_0.actBackEnergy           1579312110                       # Energy for active background per rank (pJ)
system.mem_ctrls_0.preBackEnergy             24675840                       # Energy for precharge background per rank (pJ)
system.mem_ctrls_0.actPowerDownEnergy      5229985410                       # Energy for active power-down per rank (pJ)
system.mem_ctrls_0.prePowerDownEnergy       101831040                       # Energy for precharge power-down per rank (pJ)
system.mem_ctrls_0.selfRefreshEnergy          1807140                       # Energy for self refresh per rank (pJ)
system.mem_ctrls_0.totalEnergy             9332288265                       # Total energy per rank (pJ)
system.mem_ctrls_0.averagePower            611.258133                       # Core power per rank (mW)
system.mem_ctrls_0.totalIdleTime          11739730000                       # Total Idle time Per DRAM Rank
system.mem_ctrls_0.memoryStateTime::IDLE      9966000                       # Time in different power states
system.mem_ctrls_0.memoryStateTime::REF     509866000                       # Time in different power states
system.mem_ctrls_0.memoryStateTime::SREF      5229000                       # Time in different power states
system.mem_ctrls_0.memoryStateTime::PRE_PDN    265004500                       # Time in different power states
system.mem_ctrls_0.memoryStateTime::ACT    3007183500                       # Time in different power states
system.mem_ctrls_0.memoryStateTime::ACT_PDN  11470095125                       # Time in different power states
system.mem_ctrls_1.actEnergy                349174560                       # Energy for activate commands per rank (pJ)
system.mem_ctrls_1.preEnergy                185586885                       # Energy for precharge commands per rank (pJ)
system.mem_ctrls_1.readEnergy               668232600                       # Energy for read commands per rank (pJ)
system.mem_ctrls_1.writeEnergy                 553320                       # Energy for write commands per rank (pJ)
system.mem_ctrls_1.refreshEnergy         1205923680.000000                       # Energy for refresh commands per rank (pJ)
system.mem_ctrls_1.actBackEnergy           1597929450                       # Energy for active background per rank (pJ)
system.mem_ctrls_1.preBackEnergy             24706080                       # Energy for precharge background per rank (pJ)
system.mem_ctrls_1.actPowerDownEnergy      5205169890                       # Energy for active power-down per rank (pJ)
system.mem_ctrls_1.prePowerDownEnergy       105759840                       # Energy for precharge power-down per rank (pJ)
system.mem_ctrls_1.selfRefreshEnergy          3699420                       # Energy for self refresh per rank (pJ)
system.mem_ctrls_1.totalEnergy             9346735725                       # Total energy per rank (pJ)
system.mem_ctrls_1.averagePower            612.204431                       # Core power per rank (mW)
system.mem_ctrls_1.totalIdleTime          11698652000                       # Total Idle time Per DRAM Rank
system.mem_ctrls_1.memoryStateTime::IDLE     10179500                       # Time in different power states
system.mem_ctrls_1.memoryStateTime::REF     510138000                       # Time in different power states
system.mem_ctrls_1.memoryStateTime::SREF      8511250                       # Time in different power states
system.mem_ctrls_1.memoryStateTime::PRE_PDN    275457250                       # Time in different power states
system.mem_ctrls_1.memoryStateTime::ACT    3048374625                       # Time in different power states
system.mem_ctrls_1.memoryStateTime::ACT_PDN  11414683500                       # Time in different power states
system.pwrStateResidencyTicks::UNDEFINED  15267344125                       # Cumulative time (in ticks) in various power states
system.cpu0.branchPred.lookups                1811651                       # Number of BP lookups
system.cpu0.branchPred.condPredicted          1811651                       # Number of conditional branches predicted
system.cpu0.branchPred.condIncorrect            78238                       # Number of conditional branches incorrect
system.cpu0.branchPred.BTBLookups             1469188                       # Number of BTB lookups
system.cpu0.branchPred.BTBHits                      0                       # Number of BTB hits
system.cpu0.branchPred.BTBCorrect                   0                       # Number of correct BTB predictions (this stat may not work properly.
system.cpu0.branchPred.BTBHitPct             0.000000                       # BTB Hit Percentage
system.cpu0.branchPred.usedRAS                  53253                       # Number of times the RAS was used to get a target.
system.cpu0.branchPred.RASInCorrect              8360                       # Number of incorrect RAS predictions.
system.cpu0.branchPred.indirectLookups        1469188                       # Number of indirect predictor lookups.
system.cpu0.branchPred.indirectHits            763247                       # Number of indirect target hits.
system.cpu0.branchPred.indirectMisses          705941                       # Number of indirect misses.
system.cpu0.branchPredindirectMispredicted        26734                       # Number of mispredicted indirect branches.
system.cpu_voltage_domain.voltage                   1                       # Voltage in Volts
system.cpu_clk_domain.clock                       500                       # Clock period in ticks
system.cpu0.dtb.walker.pwrStateResidencyTicks::UNDEFINED  15267344125                       # Cumulative time (in ticks) in various power states
system.cpu0.dtb.rdAccesses                     853869                       # TLB accesses on read requests
system.cpu0.dtb.wrAccesses                      49859                       # TLB accesses on write requests
system.cpu0.dtb.rdMisses                       171928                       # TLB misses on read requests
system.cpu0.dtb.wrMisses                          953                       # TLB misses on write requests
system.cpu0.apic_clk_domain.clock                8000                       # Clock period in ticks
system.cpu0.interrupts.pwrStateResidencyTicks::UNDEFINED  15267344125                       # Cumulative time (in ticks) in various power states
system.cpu0.itb.walker.pwrStateResidencyTicks::UNDEFINED  15267344125                       # Cumulative time (in ticks) in various power states
system.cpu0.itb.rdAccesses                          0                       # TLB accesses on read requests
system.cpu0.itb.wrAccesses                    1468102                       # TLB accesses on write requests
system.cpu0.itb.rdMisses                            0                       # TLB misses on read requests
system.cpu0.itb.wrMisses                         6497                       # TLB misses on write requests
system.cpu0.workload.numSyscalls                    0                       # Number of system calls
system.cpu0.pwrStateResidencyTicks::ON    15267344125                       # Cumulative time (in ticks) in various power states
system.cpu0.numCycles                        30534688                       # number of cpu cycles simulated
system.cpu0.numWorkItemsStarted                     0                       # number of work items this cpu started
system.cpu0.numWorkItemsCompleted                   0                       # number of work items this cpu completed
system.cpu0.fetch.icacheStallCycles           1502563                       # Number of cycles fetch is stalled on an Icache miss
system.cpu0.fetch.Insts                       5259677                       # Number of instructions fetch has processed
system.cpu0.fetch.Branches                    1811651                       # Number of branches that fetch encountered
system.cpu0.fetch.predictedBranches            816500                       # Number of branches that fetch has predicted taken
system.cpu0.fetch.Cycles                     28825988                       # Number of cycles fetch has run and was not squashing or blocked
system.cpu0.fetch.SquashCycles                 160660                       # Number of cycles fetch has spent squashing
system.cpu0.fetch.TlbCycles                      2380                       # Number of cycles fetch has spent waiting for tlb
system.cpu0.fetch.MiscStallCycles                1504                       # Number of cycles fetch has spent waiting on interrupts, or bad addresses, or out of MSHRs
system.cpu0.fetch.PendingTrapStallCycles        57973                       # Number of stall cycles due to pending traps
system.cpu0.fetch.CacheLines                  1461605                       # Number of cache lines fetched
system.cpu0.fetch.IcacheSquashes                 9272                       # Number of outstanding Icache misses that were squashed
system.cpu0.fetch.ItlbSquashes                     10                       # Number of outstanding ITLB misses that were squashed
system.cpu0.fetch.rateDist::samples          30470738                       # Number of instructions fetched each cycle (Total)
system.cpu0.fetch.rateDist::mean             0.348173                       # Number of instructions fetched each cycle (Total)
system.cpu0.fetch.rateDist::stdev            1.482933                       # Number of instructions fetched each cycle (Total)
system.cpu0.fetch.rateDist::underflows              0      0.00%      0.00% # Number of instructions fetched each cycle (Total)
system.cpu0.fetch.rateDist::0                28427416     93.29%     93.29% # Number of instructions fetched each cycle (Total)
system.cpu0.fetch.rateDist::1                   29598      0.10%     93.39% # Number of instructions fetched each cycle (Total)
system.cpu0.fetch.rateDist::2                  726164      2.38%     95.77% # Number of instructions fetched each cycle (Total)
system.cpu0.fetch.rateDist::3                   27684      0.09%     95.87% # Number of instructions fetched each cycle (Total)
system.cpu0.fetch.rateDist::4                  144747      0.48%     96.34% # Number of instructions fetched each cycle (Total)
system.cpu0.fetch.rateDist::5                   81091      0.27%     96.61% # Number of instructions fetched each cycle (Total)
system.cpu0.fetch.rateDist::6                   93033      0.31%     96.91% # Number of instructions fetched each cycle (Total)
system.cpu0.fetch.rateDist::7                   26562      0.09%     97.00% # Number of instructions fetched each cycle (Total)
system.cpu0.fetch.rateDist::8                  914443      3.00%    100.00% # Number of instructions fetched each cycle (Total)
system.cpu0.fetch.rateDist::overflows               0      0.00%    100.00% # Number of instructions fetched each cycle (Total)
system.cpu0.fetch.rateDist::min_value               0                       # Number of instructions fetched each cycle (Total)
system.cpu0.fetch.rateDist::max_value               8                       # Number of instructions fetched each cycle (Total)
system.cpu0.fetch.rateDist::total            30470738                       # Number of instructions fetched each cycle (Total)
system.cpu0.fetch.branchRate                 0.059331                       # Number of branch fetches per cycle
system.cpu0.fetch.rate                       0.172253                       # Number of inst fetches per cycle
system.cpu0.decode.IdleCycles                  758384                       # Number of cycles decode is idle
system.cpu0.decode.BlockedCycles             28295728                       # Number of cycles decode is blocked
system.cpu0.decode.RunCycles                   986247                       # Number of cycles decode is running
system.cpu0.decode.UnblockCycles               350049                       # Number of cycles decode is unblocking
system.cpu0.decode.SquashCycles                 80330                       # Number of cycles decode is squashing
system.cpu0.decode.DecodedInsts               8692821                       # Number of instructions handled by decode
system.cpu0.rename.SquashCycles                 80330                       # Number of cycles rename is squashing
system.cpu0.rename.IdleCycles                  869388                       # Number of cycles rename is idle
system.cpu0.rename.BlockCycles               26865715                       # Number of cycles rename is blocking
system.cpu0.rename.serializeStallCycles          9714                       # count of cycles rename stalled for serializing inst
system.cpu0.rename.RunCycles                  1141550                       # Number of cycles rename is running
system.cpu0.rename.UnblockCycles              1504041                       # Number of cycles rename is unblocking
system.cpu0.rename.RenamedInsts               8329954                       # Number of instructions processed by rename
system.cpu0.rename.ROBFullEvents                87022                       # Number of times rename has blocked due to ROB full
system.cpu0.rename.IQFullEvents               1156293                       # Number of times rename has blocked due to IQ full
system.cpu0.rename.LQFullEvents                303028                       # Number of times rename has blocked due to LQ full
system.cpu0.rename.SQFullEvents                  1450                       # Number of times rename has blocked due to SQ full
system.cpu0.rename.RenamedOperands            9942555                       # Number of destination operands rename has renamed
system.cpu0.rename.RenameLookups             23128111                       # Number of register rename lookups that rename has made
system.cpu0.rename.int_rename_lookups        10906248                       # Number of integer rename lookups
system.cpu0.rename.fp_rename_lookups            39763                       # Number of floating rename lookups
system.cpu0.rename.CommittedMaps              3409220                       # Number of HB maps that are committed
system.cpu0.rename.UndoneMaps                 6533268                       # Number of HB maps that are undone due to squashing
system.cpu0.rename.serializingInsts               244                       # count of serializing insts renamed
system.cpu0.rename.tempSerializingInsts           286                       # count of temporary serializing insts renamed
system.cpu0.rename.skidInsts                  2218067                       # count of insts added to the skid buffer
system.cpu0.memDep0.insertedLoads             1503629                       # Number of loads inserted to the mem dependence unit.
system.cpu0.memDep0.insertedStores              75029                       # Number of stores inserted to the mem dependence unit.
system.cpu0.memDep0.conflictingLoads             4214                       # Number of conflicting loads.
system.cpu0.memDep0.conflictingStores            4209                       # Number of conflicting stores.
system.cpu0.iq.iqInstsAdded                   7894317                       # Number of instructions added to the IQ (excludes non-spec)
system.cpu0.iq.iqNonSpecInstsAdded               4550                       # Number of non-speculative instructions added to the IQ
system.cpu0.iq.iqInstsIssued                  5647245                       # Number of instructions issued
system.cpu0.iq.iqSquashedInstsIssued             7091                       # Number of squashed instructions issued
system.cpu0.iq.iqSquashedInstsExamined        5055014                       # Number of squashed instructions iterated over during squash; mainly for profiling
system.cpu0.iq.iqSquashedOperandsExamined     10375033                       # Number of squashed operands that are examined and possibly removed from graph
system.cpu0.iq.iqSquashedNonSpecRemoved          4550                       # Number of squashed non-spec instructions that were removed
system.cpu0.iq.issued_per_cycle::samples     30470738                       # Number of insts issued each cycle
system.cpu0.iq.issued_per_cycle::mean        0.185333                       # Number of insts issued each cycle
system.cpu0.iq.issued_per_cycle::stdev       0.783817                       # Number of insts issued each cycle
system.cpu0.iq.issued_per_cycle::underflows            0      0.00%      0.00% # Number of insts issued each cycle
system.cpu0.iq.issued_per_cycle::0           28157943     92.41%     92.41% # Number of insts issued each cycle
system.cpu0.iq.issued_per_cycle::1             922153      3.03%     95.44% # Number of insts issued each cycle
system.cpu0.iq.issued_per_cycle::2             481237      1.58%     97.02% # Number of insts issued each cycle
system.cpu0.iq.issued_per_cycle::3             323249      1.06%     98.08% # Number of insts issued each cycle
system.cpu0.iq.issued_per_cycle::4             344147      1.13%     99.21% # Number of insts issued each cycle
system.cpu0.iq.issued_per_cycle::5             107411      0.35%     99.56% # Number of insts issued each cycle
system.cpu0.iq.issued_per_cycle::6              84008      0.28%     99.83% # Number of insts issued each cycle
system.cpu0.iq.issued_per_cycle::7              29540      0.10%     99.93% # Number of insts issued each cycle
system.cpu0.iq.issued_per_cycle::8              21050      0.07%    100.00% # Number of insts issued each cycle
system.cpu0.iq.issued_per_cycle::overflows            0      0.00%    100.00% # Number of insts issued each cycle
system.cpu0.iq.issued_per_cycle::min_value            0                       # Number of insts issued each cycle
system.cpu0.iq.issued_per_cycle::max_value            8                       # Number of insts issued each cycle
system.cpu0.iq.issued_per_cycle::total       30470738                       # Number of insts issued each cycle
system.cpu0.iq.fu_full::No_OpClass                  0      0.00%      0.00% # attempts to use FU when none available
system.cpu0.iq.fu_full::IntAlu                  11474     65.29%     65.29% # attempts to use FU when none available
system.cpu0.iq.fu_full::IntMult                     0      0.00%     65.29% # attempts to use FU when none available
system.cpu0.iq.fu_full::IntDiv                      0      0.00%     65.29% # attempts to use FU when none available
system.cpu0.iq.fu_full::FloatAdd                 1135      6.46%     71.75% # attempts to use FU when none available
system.cpu0.iq.fu_full::FloatCmp                    0      0.00%     71.75% # attempts to use FU when none available
system.cpu0.iq.fu_full::FloatCvt                    0      0.00%     71.75% # attempts to use FU when none available
system.cpu0.iq.fu_full::FloatMult                   0      0.00%     71.75% # attempts to use FU when none available
system.cpu0.iq.fu_full::FloatMultAcc                0      0.00%     71.75% # attempts to use FU when none available
system.cpu0.iq.fu_full::FloatDiv                    0      0.00%     71.75% # attempts to use FU when none available
system.cpu0.iq.fu_full::FloatMisc                   0      0.00%     71.75% # attempts to use FU when none available
system.cpu0.iq.fu_full::FloatSqrt                   0      0.00%     71.75% # attempts to use FU when none available
system.cpu0.iq.fu_full::SimdAdd                     0      0.00%     71.75% # attempts to use FU when none available
system.cpu0.iq.fu_full::SimdAddAcc                  0      0.00%     71.75% # attempts to use FU when none available
system.cpu0.iq.fu_full::SimdAlu                     0      0.00%     71.75% # attempts to use FU when none available
system.cpu0.iq.fu_full::SimdCmp                     0      0.00%     71.75% # attempts to use FU when none available
system.cpu0.iq.fu_full::SimdCvt                     0      0.00%     71.75% # attempts to use FU when none available
system.cpu0.iq.fu_full::SimdMisc                    0      0.00%     71.75% # attempts to use FU when none available
system.cpu0.iq.fu_full::SimdMult                    0      0.00%     71.75% # attempts to use FU when none available
system.cpu0.iq.fu_full::SimdMultAcc                 0      0.00%     71.75% # attempts to use FU when none available
system.cpu0.iq.fu_full::SimdShift                   0      0.00%     71.75% # attempts to use FU when none available
system.cpu0.iq.fu_full::SimdShiftAcc                0      0.00%     71.75% # attempts to use FU when none available
system.cpu0.iq.fu_full::SimdSqrt                    0      0.00%     71.75% # attempts to use FU when none available
system.cpu0.iq.fu_full::SimdFloatAdd                0      0.00%     71.75% # attempts to use FU when none available
system.cpu0.iq.fu_full::SimdFloatAlu                0      0.00%     71.75% # attempts to use FU when none available
system.cpu0.iq.fu_full::SimdFloatCmp                0      0.00%     71.75% # attempts to use FU when none available
system.cpu0.iq.fu_full::SimdFloatCvt                0      0.00%     71.75% # attempts to use FU when none available
system.cpu0.iq.fu_full::SimdFloatDiv                0      0.00%     71.75% # attempts to use FU when none available
system.cpu0.iq.fu_full::SimdFloatMisc               0      0.00%     71.75% # attempts to use FU when none available
system.cpu0.iq.fu_full::SimdFloatMult               0      0.00%     71.75% # attempts to use FU when none available
system.cpu0.iq.fu_full::SimdFloatMultAcc            0      0.00%     71.75% # attempts to use FU when none available
system.cpu0.iq.fu_full::SimdFloatSqrt               0      0.00%     71.75% # attempts to use FU when none available
system.cpu0.iq.fu_full::MemRead                  4618     26.28%     98.03% # attempts to use FU when none available
system.cpu0.iq.fu_full::MemWrite                  253      1.44%     99.47% # attempts to use FU when none available
system.cpu0.iq.fu_full::FloatMemRead               77      0.44%     99.91% # attempts to use FU when none available
system.cpu0.iq.fu_full::FloatMemWrite              16      0.09%    100.00% # attempts to use FU when none available
system.cpu0.iq.fu_full::IprAccess                   0      0.00%    100.00% # attempts to use FU when none available
system.cpu0.iq.fu_full::InstPrefetch                0      0.00%    100.00% # attempts to use FU when none available
system.cpu0.iq.FU_type_0::No_OpClass            19493      0.35%      0.35% # Type of FU issued
system.cpu0.iq.FU_type_0::IntAlu              4652669     82.39%     82.73% # Type of FU issued
system.cpu0.iq.FU_type_0::IntMult                1011      0.02%     82.75% # Type of FU issued
system.cpu0.iq.FU_type_0::IntDiv                 9304      0.16%     82.92% # Type of FU issued
system.cpu0.iq.FU_type_0::FloatAdd              14213      0.25%     83.17% # Type of FU issued
system.cpu0.iq.FU_type_0::FloatCmp                  0      0.00%     83.17% # Type of FU issued
system.cpu0.iq.FU_type_0::FloatCvt                  0      0.00%     83.17% # Type of FU issued
system.cpu0.iq.FU_type_0::FloatMult                 0      0.00%     83.17% # Type of FU issued
system.cpu0.iq.FU_type_0::FloatMultAcc              0      0.00%     83.17% # Type of FU issued
system.cpu0.iq.FU_type_0::FloatDiv                  0      0.00%     83.17% # Type of FU issued
system.cpu0.iq.FU_type_0::FloatMisc                 0      0.00%     83.17% # Type of FU issued
system.cpu0.iq.FU_type_0::FloatSqrt                 0      0.00%     83.17% # Type of FU issued
system.cpu0.iq.FU_type_0::SimdAdd                   0      0.00%     83.17% # Type of FU issued
system.cpu0.iq.FU_type_0::SimdAddAcc                0      0.00%     83.17% # Type of FU issued
system.cpu0.iq.FU_type_0::SimdAlu                   0      0.00%     83.17% # Type of FU issued
system.cpu0.iq.FU_type_0::SimdCmp                   0      0.00%     83.17% # Type of FU issued
system.cpu0.iq.FU_type_0::SimdCvt                   0      0.00%     83.17% # Type of FU issued
system.cpu0.iq.FU_type_0::SimdMisc                  0      0.00%     83.17% # Type of FU issued
system.cpu0.iq.FU_type_0::SimdMult                  0      0.00%     83.17% # Type of FU issued
system.cpu0.iq.FU_type_0::SimdMultAcc               0      0.00%     83.17% # Type of FU issued
system.cpu0.iq.FU_type_0::SimdShift                 0      0.00%     83.17% # Type of FU issued
system.cpu0.iq.FU_type_0::SimdShiftAcc              0      0.00%     83.17% # Type of FU issued
system.cpu0.iq.FU_type_0::SimdSqrt                  0      0.00%     83.17% # Type of FU issued
system.cpu0.iq.FU_type_0::SimdFloatAdd              0      0.00%     83.17% # Type of FU issued
system.cpu0.iq.FU_type_0::SimdFloatAlu              0      0.00%     83.17% # Type of FU issued
system.cpu0.iq.FU_type_0::SimdFloatCmp              0      0.00%     83.17% # Type of FU issued
system.cpu0.iq.FU_type_0::SimdFloatCvt              0      0.00%     83.17% # Type of FU issued
system.cpu0.iq.FU_type_0::SimdFloatDiv              0      0.00%     83.17% # Type of FU issued
system.cpu0.iq.FU_type_0::SimdFloatMisc             0      0.00%     83.17% # Type of FU issued
system.cpu0.iq.FU_type_0::SimdFloatMult             0      0.00%     83.17% # Type of FU issued
system.cpu0.iq.FU_type_0::SimdFloatMultAcc            0      0.00%     83.17% # Type of FU issued
system.cpu0.iq.FU_type_0::SimdFloatSqrt             0      0.00%     83.17% # Type of FU issued
system.cpu0.iq.FU_type_0::MemRead              894584     15.84%     99.01% # Type of FU issued
system.cpu0.iq.FU_type_0::MemWrite              53768      0.95%     99.96% # Type of FU issued
system.cpu0.iq.FU_type_0::FloatMemRead           2145      0.04%    100.00% # Type of FU issued
system.cpu0.iq.FU_type_0::FloatMemWrite            58      0.00%    100.00% # Type of FU issued
system.cpu0.iq.FU_type_0::IprAccess                 0      0.00%    100.00% # Type of FU issued
system.cpu0.iq.FU_type_0::InstPrefetch              0      0.00%    100.00% # Type of FU issued
system.cpu0.iq.FU_type_0::total               5647245                       # Type of FU issued
system.cpu0.iq.rate                          0.184945                       # Inst issue rate
system.cpu0.iq.fu_busy_cnt                      17573                       # FU busy when requested
system.cpu0.iq.fu_busy_rate                  0.003112                       # FU busy rate (busy events/executed inst)
system.cpu0.iq.int_inst_queue_reads          41755633                       # Number of integer instruction queue reads
system.cpu0.iq.int_inst_queue_writes         12919325                       # Number of integer instruction queue writes
system.cpu0.iq.int_inst_queue_wakeup_accesses      5404422                       # Number of integer instruction queue wakeup accesses
system.cpu0.iq.fp_inst_queue_reads              34260                       # Number of floating instruction queue reads
system.cpu0.iq.fp_inst_queue_writes             34560                       # Number of floating instruction queue writes
system.cpu0.iq.fp_inst_queue_wakeup_accesses        15308                       # Number of floating instruction queue wakeup accesses
system.cpu0.iq.vec_inst_queue_reads                 0                       # Number of vector instruction queue reads
system.cpu0.iq.vec_inst_queue_writes                0                       # Number of vector instruction queue writes
system.cpu0.iq.vec_inst_queue_wakeup_accesses            0                       # Number of vector instruction queue wakeup accesses
system.cpu0.iq.int_alu_accesses               5627672                       # Number of integer alu accesses
system.cpu0.iq.fp_alu_accesses                  17653                       # Number of floating point alu accesses
system.cpu0.iq.vec_alu_accesses                     0                       # Number of vector alu accesses
system.cpu0.iew.lsq.thread0.forwLoads            4132                       # Number of loads that had data forwarded from stores
system.cpu0.iew.lsq.thread0.invAddrLoads            0                       # Number of loads ignored due to an invalid address
system.cpu0.iew.lsq.thread0.squashedLoads       963406                       # Number of loads squashed
system.cpu0.iew.lsq.thread0.ignoredResponses          155                       # Number of memory responses ignored because the instruction is squashed
system.cpu0.iew.lsq.thread0.memOrderViolation            4                       # Number of memory ordering violations
system.cpu0.iew.lsq.thread0.squashedStores        49162                       # Number of stores squashed
system.cpu0.iew.lsq.thread0.invAddrSwpfs            0                       # Number of software prefetches ignored due to an invalid address
system.cpu0.iew.lsq.thread0.blockedLoads            0                       # Number of blocked loads due to partial load-store forwarding
system.cpu0.iew.lsq.thread0.rescheduledLoads           24                       # Number of loads that were rescheduled
system.cpu0.iew.lsq.thread0.cacheBlocked         1875                       # Number of times an access to memory failed due to the cache being blocked
system.cpu0.iew.iewIdleCycles                       0                       # Number of cycles IEW is idle
system.cpu0.iew.iewSquashCycles                 80330                       # Number of cycles IEW is squashing
system.cpu0.iew.iewBlockCycles               24652799                       # Number of cycles IEW is blocking
system.cpu0.iew.iewUnblockCycles               294016                       # Number of cycles IEW is unblocking
system.cpu0.iew.iewDispatchedInsts            7898867                       # Number of instructions dispatched to IQ
system.cpu0.iew.iewDispSquashedInsts             5443                       # Number of squashed instructions skipped by dispatch
system.cpu0.iew.iewDispLoadInsts              1503629                       # Number of dispatched load instructions
system.cpu0.iew.iewDispStoreInsts               75029                       # Number of dispatched store instructions
system.cpu0.iew.iewDispNonSpecInsts              1674                       # Number of dispatched non-speculative instructions
system.cpu0.iew.iewIQFullEvents                 23276                       # Number of times the IQ has become full, causing a stall
system.cpu0.iew.iewLSQFullEvents                70823                       # Number of times the LSQ has become full, causing a stall
system.cpu0.iew.memOrderViolationEvents             4                       # Number of memory order violations
system.cpu0.iew.predictedTakenIncorrect         41267                       # Number of branches that were predicted taken incorrectly
system.cpu0.iew.predictedNotTakenIncorrect        47127                       # Number of branches that were predicted not taken incorrectly
system.cpu0.iew.branchMispredicts               88394                       # Number of branch mispredicts detected at execute
system.cpu0.iew.iewExecutedInsts              5539260                       # Number of executed instructions
system.cpu0.iew.iewExecLoadInsts               853647                       # Number of load instructions executed
system.cpu0.iew.iewExecSquashedInsts           107986                       # Number of squashed instructions skipped in execute
system.cpu0.iew.exec_swp                            0                       # number of swp insts executed
system.cpu0.iew.exec_nop                            0                       # number of nop insts executed
system.cpu0.iew.exec_refs                      903492                       # number of memory reference insts executed
system.cpu0.iew.exec_branches                  666493                       # Number of branches executed
system.cpu0.iew.exec_stores                     49845                       # Number of stores executed
system.cpu0.iew.exec_rate                    0.181409                       # Inst execution rate
system.cpu0.iew.wb_sent                       5439191                       # cumulative count of insts sent to commit
system.cpu0.iew.wb_count                      5419730                       # cumulative count of insts written-back
system.cpu0.iew.wb_producers                  4011783                       # num instructions producing a value
system.cpu0.iew.wb_consumers                  6320129                       # num instructions consuming a value
system.cpu0.iew.wb_rate                      0.177494                       # insts written-back per cycle
system.cpu0.iew.wb_fanout                    0.634763                       # average fanout of values written-back
system.cpu0.commit.commitSquashedInsts        5055761                       # The number of squashed insts skipped by commit
system.cpu0.commit.branchMispredicts            80327                       # The number of times a branch was mispredicted
system.cpu0.commit.committed_per_cycle::samples     29750569                       # Number of insts commited each cycle
system.cpu0.commit.committed_per_cycle::mean     0.095588                       # Number of insts commited each cycle
system.cpu0.commit.committed_per_cycle::stdev     0.567820                       # Number of insts commited each cycle
system.cpu0.commit.committed_per_cycle::underflows            0      0.00%      0.00% # Number of insts commited each cycle
system.cpu0.commit.committed_per_cycle::0     28513269     95.84%     95.84% # Number of insts commited each cycle
system.cpu0.commit.committed_per_cycle::1       572214      1.92%     97.76% # Number of insts commited each cycle
system.cpu0.commit.committed_per_cycle::2       134618      0.45%     98.22% # Number of insts commited each cycle
system.cpu0.commit.committed_per_cycle::3       369625      1.24%     99.46% # Number of insts commited each cycle
system.cpu0.commit.committed_per_cycle::4        66850      0.22%     99.68% # Number of insts commited each cycle
system.cpu0.commit.committed_per_cycle::5        35907      0.12%     99.80% # Number of insts commited each cycle
system.cpu0.commit.committed_per_cycle::6         7125      0.02%     99.83% # Number of insts commited each cycle
system.cpu0.commit.committed_per_cycle::7         3907      0.01%     99.84% # Number of insts commited each cycle
system.cpu0.commit.committed_per_cycle::8        47054      0.16%    100.00% # Number of insts commited each cycle
system.cpu0.commit.committed_per_cycle::overflows            0      0.00%    100.00% # Number of insts commited each cycle
system.cpu0.commit.committed_per_cycle::min_value            0                       # Number of insts commited each cycle
system.cpu0.commit.committed_per_cycle::max_value            8                       # Number of insts commited each cycle
system.cpu0.commit.committed_per_cycle::total     29750569                       # Number of insts commited each cycle
system.cpu0.commit.committedInsts             1422719                       # Number of instructions committed
system.cpu0.commit.committedOps               2843791                       # Number of ops (including micro ops) committed
system.cpu0.commit.swp_count                        0                       # Number of s/w prefetches committed
system.cpu0.commit.refs                        566076                       # Number of memory references committed
system.cpu0.commit.loads                       540209                       # Number of loads committed
system.cpu0.commit.membars                          0                       # Number of memory barriers committed
system.cpu0.commit.branches                    516204                       # Number of branches committed
system.cpu0.commit.vec_insts                        0                       # Number of committed Vector instructions.
system.cpu0.commit.fp_insts                     10374                       # Number of committed floating point instructions.
system.cpu0.commit.int_insts                  2833328                       # Number of committed integer instructions.
system.cpu0.commit.function_calls                4575                       # Number of function calls committed.
system.cpu0.commit.op_class_0::No_OpClass         3101      0.11%      0.11% # Class of committed instruction
system.cpu0.commit.op_class_0::IntAlu         2258100     79.40%     79.51% # Class of committed instruction
system.cpu0.commit.op_class_0::IntMult            183      0.01%     79.52% # Class of committed instruction
system.cpu0.commit.op_class_0::IntDiv            7463      0.26%     79.78% # Class of committed instruction
system.cpu0.commit.op_class_0::FloatAdd          8868      0.31%     80.09% # Class of committed instruction
system.cpu0.commit.op_class_0::FloatCmp             0      0.00%     80.09% # Class of committed instruction
system.cpu0.commit.op_class_0::FloatCvt             0      0.00%     80.09% # Class of committed instruction
system.cpu0.commit.op_class_0::FloatMult            0      0.00%     80.09% # Class of committed instruction
system.cpu0.commit.op_class_0::FloatMultAcc            0      0.00%     80.09% # Class of committed instruction
system.cpu0.commit.op_class_0::FloatDiv             0      0.00%     80.09% # Class of committed instruction
system.cpu0.commit.op_class_0::FloatMisc            0      0.00%     80.09% # Class of committed instruction
system.cpu0.commit.op_class_0::FloatSqrt            0      0.00%     80.09% # Class of committed instruction
system.cpu0.commit.op_class_0::SimdAdd              0      0.00%     80.09% # Class of committed instruction
system.cpu0.commit.op_class_0::SimdAddAcc            0      0.00%     80.09% # Class of committed instruction
system.cpu0.commit.op_class_0::SimdAlu              0      0.00%     80.09% # Class of committed instruction
system.cpu0.commit.op_class_0::SimdCmp              0      0.00%     80.09% # Class of committed instruction
system.cpu0.commit.op_class_0::SimdCvt              0      0.00%     80.09% # Class of committed instruction
system.cpu0.commit.op_class_0::SimdMisc             0      0.00%     80.09% # Class of committed instruction
system.cpu0.commit.op_class_0::SimdMult             0      0.00%     80.09% # Class of committed instruction
system.cpu0.commit.op_class_0::SimdMultAcc            0      0.00%     80.09% # Class of committed instruction
system.cpu0.commit.op_class_0::SimdShift            0      0.00%     80.09% # Class of committed instruction
system.cpu0.commit.op_class_0::SimdShiftAcc            0      0.00%     80.09% # Class of committed instruction
system.cpu0.commit.op_class_0::SimdSqrt             0      0.00%     80.09% # Class of committed instruction
system.cpu0.commit.op_class_0::SimdFloatAdd            0      0.00%     80.09% # Class of committed instruction
system.cpu0.commit.op_class_0::SimdFloatAlu            0      0.00%     80.09% # Class of committed instruction
system.cpu0.commit.op_class_0::SimdFloatCmp            0      0.00%     80.09% # Class of committed instruction
system.cpu0.commit.op_class_0::SimdFloatCvt            0      0.00%     80.09% # Class of committed instruction
system.cpu0.commit.op_class_0::SimdFloatDiv            0      0.00%     80.09% # Class of committed instruction
system.cpu0.commit.op_class_0::SimdFloatMisc            0      0.00%     80.09% # Class of committed instruction
system.cpu0.commit.op_class_0::SimdFloatMult            0      0.00%     80.09% # Class of committed instruction
system.cpu0.commit.op_class_0::SimdFloatMultAcc            0      0.00%     80.09% # Class of committed instruction
system.cpu0.commit.op_class_0::SimdFloatSqrt            0      0.00%     80.09% # Class of committed instruction
system.cpu0.commit.op_class_0::MemRead         538703     18.94%     99.04% # Class of committed instruction
system.cpu0.commit.op_class_0::MemWrite         25867      0.91%     99.95% # Class of committed instruction
system.cpu0.commit.op_class_0::FloatMemRead         1506      0.05%    100.00% # Class of committed instruction
system.cpu0.commit.op_class_0::FloatMemWrite            0      0.00%    100.00% # Class of committed instruction
system.cpu0.commit.op_class_0::IprAccess            0      0.00%    100.00% # Class of committed instruction
system.cpu0.commit.op_class_0::InstPrefetch            0      0.00%    100.00% # Class of committed instruction
system.cpu0.commit.op_class_0::total          2843791                       # Class of committed instruction
system.cpu0.commit.bw_lim_events                47054                       # number cycles where commit BW limit reached
system.cpu0.rob.rob_reads                    37603067                       # The number of ROB reads
system.cpu0.rob.rob_writes                   16521120                       # The number of ROB writes
system.cpu0.timesIdled                            528                       # Number of times that the entire CPU went into an idle state and unscheduled itself
system.cpu0.idleCycles                          63950                       # Total number of cycles that the CPU has spent unscheduled due to idling
system.cpu0.committedInsts                    1422719                       # Number of Instructions Simulated
system.cpu0.committedOps                      2843791                       # Number of Ops (including micro ops) Simulated
system.cpu0.cpi                             21.462206                       # CPI: Cycles Per Instruction
system.cpu0.cpi_total                       21.462206                       # CPI: Total CPI of All Threads
system.cpu0.ipc                              0.046594                       # IPC: Instructions Per Cycle
system.cpu0.ipc_total                        0.046594                       # IPC: Total IPC of All Threads
system.cpu0.int_regfile_reads                 5503308                       # number of integer regfile reads
system.cpu0.int_regfile_writes                4709153                       # number of integer regfile writes
system.cpu0.fp_regfile_reads                    27495                       # number of floating regfile reads
system.cpu0.fp_regfile_writes                   13703                       # number of floating regfile writes
system.cpu0.cc_regfile_reads                  3479054                       # number of cc regfile reads
system.cpu0.cc_regfile_writes                 1506577                       # number of cc regfile writes
system.cpu0.misc_regfile_reads                2922582                       # number of misc regfile reads
system.cpu0.dcache.tags.pwrStateResidencyTicks::UNDEFINED  15267344125                       # Cumulative time (in ticks) in various power states
system.cpu0.dcache.tags.replacements           284051                       # number of replacements
system.cpu0.dcache.tags.tagsinuse                1024                       # Cycle average of tags in use
system.cpu0.dcache.tags.total_refs             364416                       # Total number of references to valid blocks.
system.cpu0.dcache.tags.sampled_refs           284051                       # Sample count of references to valid blocks.
system.cpu0.dcache.tags.avg_refs             1.282925                       # Average number of references to valid blocks.
system.cpu0.dcache.tags.warmup_cycle                0                       # Cycle when the warmup percentage was hit.
system.cpu0.dcache.tags.occ_blocks::cpu0.data         1024                       # Average occupied blocks per requestor
system.cpu0.dcache.tags.occ_percent::cpu0.data            1                       # Average percentage of cache occupancy
system.cpu0.dcache.tags.occ_percent::total            1                       # Average percentage of cache occupancy
system.cpu0.dcache.tags.occ_task_id_blocks::1024         1024                       # Occupied blocks per task id
system.cpu0.dcache.tags.age_task_id_blocks_1024::0          128                       # Occupied blocks per task id
system.cpu0.dcache.tags.age_task_id_blocks_1024::1          887                       # Occupied blocks per task id
system.cpu0.dcache.tags.age_task_id_blocks_1024::2            9                       # Occupied blocks per task id
system.cpu0.dcache.tags.occ_task_id_percent::1024            1                       # Percentage of cache occupancy per task id
system.cpu0.dcache.tags.tag_accesses          3766591                       # Number of tag accesses
system.cpu0.dcache.tags.data_accesses         3766591                       # Number of data accesses
system.cpu0.dcache.pwrStateResidencyTicks::UNDEFINED  15267344125                       # Cumulative time (in ticks) in various power states
system.cpu0.dcache.ReadReq_hits::cpu0.data       341310                       # number of ReadReq hits
system.cpu0.dcache.ReadReq_hits::total         341310                       # number of ReadReq hits
system.cpu0.dcache.WriteReq_hits::cpu0.data        24830                       # number of WriteReq hits
system.cpu0.dcache.WriteReq_hits::total         24830                       # number of WriteReq hits
system.cpu0.dcache.demand_hits::cpu0.data       366140                       # number of demand (read+write) hits
system.cpu0.dcache.demand_hits::total          366140                       # number of demand (read+write) hits
system.cpu0.dcache.overall_hits::cpu0.data       366140                       # number of overall hits
system.cpu0.dcache.overall_hits::total         366140                       # number of overall hits
system.cpu0.dcache.ReadReq_misses::cpu0.data       503458                       # number of ReadReq misses
system.cpu0.dcache.ReadReq_misses::total       503458                       # number of ReadReq misses
system.cpu0.dcache.WriteReq_misses::cpu0.data         1037                       # number of WriteReq misses
system.cpu0.dcache.WriteReq_misses::total         1037                       # number of WriteReq misses
system.cpu0.dcache.demand_misses::cpu0.data       504495                       # number of demand (read+write) misses
system.cpu0.dcache.demand_misses::total        504495                       # number of demand (read+write) misses
system.cpu0.dcache.overall_misses::cpu0.data       504495                       # number of overall misses
system.cpu0.dcache.overall_misses::total       504495                       # number of overall misses
system.cpu0.dcache.ReadReq_miss_latency::cpu0.data  34920656500                       # number of ReadReq miss cycles
system.cpu0.dcache.ReadReq_miss_latency::total  34920656500                       # number of ReadReq miss cycles
system.cpu0.dcache.WriteReq_miss_latency::cpu0.data     36705500                       # number of WriteReq miss cycles
system.cpu0.dcache.WriteReq_miss_latency::total     36705500                       # number of WriteReq miss cycles
system.cpu0.dcache.demand_miss_latency::cpu0.data  34957362000                       # number of demand (read+write) miss cycles
system.cpu0.dcache.demand_miss_latency::total  34957362000                       # number of demand (read+write) miss cycles
system.cpu0.dcache.overall_miss_latency::cpu0.data  34957362000                       # number of overall miss cycles
system.cpu0.dcache.overall_miss_latency::total  34957362000                       # number of overall miss cycles
system.cpu0.dcache.ReadReq_accesses::cpu0.data       844768                       # number of ReadReq accesses(hits+misses)
system.cpu0.dcache.ReadReq_accesses::total       844768                       # number of ReadReq accesses(hits+misses)
system.cpu0.dcache.WriteReq_accesses::cpu0.data        25867                       # number of WriteReq accesses(hits+misses)
system.cpu0.dcache.WriteReq_accesses::total        25867                       # number of WriteReq accesses(hits+misses)
system.cpu0.dcache.demand_accesses::cpu0.data       870635                       # number of demand (read+write) accesses
system.cpu0.dcache.demand_accesses::total       870635                       # number of demand (read+write) accesses
system.cpu0.dcache.overall_accesses::cpu0.data       870635                       # number of overall (read+write) accesses
system.cpu0.dcache.overall_accesses::total       870635                       # number of overall (read+write) accesses
system.cpu0.dcache.ReadReq_miss_rate::cpu0.data     0.595972                       # miss rate for ReadReq accesses
system.cpu0.dcache.ReadReq_miss_rate::total     0.595972                       # miss rate for ReadReq accesses
system.cpu0.dcache.WriteReq_miss_rate::cpu0.data     0.040090                       # miss rate for WriteReq accesses
system.cpu0.dcache.WriteReq_miss_rate::total     0.040090                       # miss rate for WriteReq accesses
system.cpu0.dcache.demand_miss_rate::cpu0.data     0.579456                       # miss rate for demand accesses
system.cpu0.dcache.demand_miss_rate::total     0.579456                       # miss rate for demand accesses
system.cpu0.dcache.overall_miss_rate::cpu0.data     0.579456                       # miss rate for overall accesses
system.cpu0.dcache.overall_miss_rate::total     0.579456                       # miss rate for overall accesses
system.cpu0.dcache.ReadReq_avg_miss_latency::cpu0.data 69361.608118                       # average ReadReq miss latency
system.cpu0.dcache.ReadReq_avg_miss_latency::total 69361.608118                       # average ReadReq miss latency
system.cpu0.dcache.WriteReq_avg_miss_latency::cpu0.data 35395.853423                       # average WriteReq miss latency
system.cpu0.dcache.WriteReq_avg_miss_latency::total 35395.853423                       # average WriteReq miss latency
system.cpu0.dcache.demand_avg_miss_latency::cpu0.data 69291.790801                       # average overall miss latency
system.cpu0.dcache.demand_avg_miss_latency::total 69291.790801                       # average overall miss latency
[...]
system.l2.ReadSharedReq_hits::cpu0.data         97404                       # number of ReadSharedReq hits
system.l2.ReadSharedReq_hits::total             97404                       # number of ReadSharedReq hits
system.l2.demand_hits::cpu0.data                98189                       # number of demand (read+write) hits
system.l2.demand_hits::total                    98189                       # number of demand (read+write) hits
system.l2.overall_hits::cpu0.data               98189                       # number of overall hits
system.l2.overall_hits::total                   98189                       # number of overall hits
system.l2.ReadExReq_misses::cpu0.data             241                       # number of ReadExReq misses
system.l2.ReadExReq_misses::total                 241                       # number of ReadExReq misses
system.l2.ReadSharedReq_misses::cpu0.data       185623                       # number of ReadSharedReq misses
system.l2.ReadSharedReq_misses::total          185623                       # number of ReadSharedReq misses
system.l2.demand_misses::cpu0.data             185864                       # number of demand (read+write) misses
system.l2.demand_misses::total                 185864                       # number of demand (read+write) misses
system.l2.overall_misses::cpu0.data            185864                       # number of overall misses
system.l2.overall_misses::total                185864                       # number of overall misses
system.l2.ReadExReq_miss_latency::cpu0.data     24899500                       # number of ReadExReq miss cycles
system.l2.ReadExReq_miss_latency::total      24899500                       # number of ReadExReq miss cycles
system.l2.ReadSharedReq_miss_latency::cpu0.data  17693717000                       # number of ReadSharedReq miss cycles
system.l2.ReadSharedReq_miss_latency::total  17693717000                       # number of ReadSharedReq miss cycles
system.l2.demand_miss_latency::cpu0.data  17718616500                       # number of demand (read+write) miss cycles
system.l2.demand_miss_latency::total      17718616500                       # number of demand (read+write) miss cycles
system.l2.overall_miss_latency::cpu0.data  17718616500                       # number of overall miss cycles
system.l2.overall_miss_latency::total     17718616500                       # number of overall miss cycles
system.l2.WritebackDirty_accesses::writebacks         2832                       # number of WritebackDirty accesses(hits+misses)
system.l2.WritebackDirty_accesses::total         2832                       # number of WritebackDirty accesses(hits+misses)
system.l2.ReadExReq_accesses::cpu0.data          1026                       # number of ReadExReq accesses(hits+misses)
system.l2.ReadExReq_accesses::total              1026                       # number of ReadExReq accesses(hits+misses)
system.l2.ReadSharedReq_accesses::cpu0.data       283027                       # number of ReadSharedReq accesses(hits+misses)
system.l2.ReadSharedReq_accesses::total        283027                       # number of ReadSharedReq accesses(hits+misses)
system.l2.demand_accesses::cpu0.data           284053                       # number of demand (read+write) accesses
system.l2.demand_accesses::total               284053                       # number of demand (read+write) accesses
system.l2.overall_accesses::cpu0.data          284053                       # number of overall (read+write) accesses
system.l2.overall_accesses::total              284053                       # number of overall (read+write) accesses
system.l2.ReadExReq_miss_rate::cpu0.data     0.234893                       # miss rate for ReadExReq accesses
system.l2.ReadExReq_miss_rate::total         0.234893                       # miss rate for ReadExReq accesses
system.l2.ReadSharedReq_miss_rate::cpu0.data     0.655849                       # miss rate for ReadSharedReq accesses
system.l2.ReadSharedReq_miss_rate::total     0.655849                       # miss rate for ReadSharedReq accesses
system.l2.demand_miss_rate::cpu0.data        0.654329                       # miss rate for demand accesses
system.l2.demand_miss_rate::total            0.654329                       # miss rate for demand accesses
system.l2.overall_miss_rate::cpu0.data       0.654329                       # miss rate for overall accesses
system.l2.overall_miss_rate::total           0.654329                       # miss rate for overall accesses
system.l2.ReadExReq_avg_miss_latency::cpu0.data 103317.427386                       # average ReadExReq miss latency
system.l2.ReadExReq_avg_miss_latency::total 103317.427386                       # average ReadExReq miss latency
system.l2.ReadSharedReq_avg_miss_latency::cpu0.data 95320.714567                       # average ReadSharedReq miss latency
system.l2.ReadSharedReq_avg_miss_latency::total 95320.714567                       # average ReadSharedReq miss latency
system.l2.demand_avg_miss_latency::cpu0.data 95331.083480                       # average overall miss latency
system.l2.demand_avg_miss_latency::total 95331.083480                       # average overall miss latency
system.l2.overall_avg_miss_latency::cpu0.data 95331.083480                       # average overall miss latency
system.l2.overall_avg_miss_latency::total 95331.083480                       # average overall miss latency
system.l2.blocked_cycles::no_mshrs                  0                       # number of cycles access was blocked
system.l2.blocked_cycles::no_targets                0                       # number of cycles access was blocked
system.l2.blocked::no_mshrs                         0                       # number of cycles access was blocked
system.l2.blocked::no_targets                       0                       # number of cycles access was blocked
system.l2.avg_blocked_cycles::no_mshrs            nan                       # average number of cycles each access was blocked
system.l2.avg_blocked_cycles::no_targets          nan                       # average number of cycles each access was blocked
system.l2.writebacks::writebacks                  361                       # number of writebacks
system.l2.writebacks::total                       361                       # number of writebacks
system.l2.ReadExReq_mshr_misses::cpu0.data          241                       # number of ReadExReq MSHR misses
system.l2.ReadExReq_mshr_misses::total            241                       # number of ReadExReq MSHR misses
system.l2.ReadSharedReq_mshr_misses::cpu0.data       185623                       # number of ReadSharedReq MSHR misses
system.l2.ReadSharedReq_mshr_misses::total       185623                       # number of ReadSharedReq MSHR misses
system.l2.demand_mshr_misses::cpu0.data        185864                       # number of demand (read+write) MSHR misses
system.l2.demand_mshr_misses::total            185864                       # number of demand (read+write) MSHR misses
system.l2.overall_mshr_misses::cpu0.data       185864                       # number of overall MSHR misses
system.l2.overall_mshr_misses::total           185864                       # number of overall MSHR misses
system.l2.ReadExReq_mshr_miss_latency::cpu0.data     22489500                       # number of ReadExReq MSHR miss cycles
system.l2.ReadExReq_mshr_miss_latency::total     22489500                       # number of ReadExReq MSHR miss cycles
system.l2.ReadSharedReq_mshr_miss_latency::cpu0.data  15837507000                       # number of ReadSharedReq MSHR miss cycles
system.l2.ReadSharedReq_mshr_miss_latency::total  15837507000                       # number of ReadSharedReq MSHR miss cycles
system.l2.demand_mshr_miss_latency::cpu0.data  15859996500                       # number of demand (read+write) MSHR miss cycles
system.l2.demand_mshr_miss_latency::total  15859996500                       # number of demand (read+write) MSHR miss cycles
system.l2.overall_mshr_miss_latency::cpu0.data  15859996500                       # number of overall MSHR miss cycles
system.l2.overall_mshr_miss_latency::total  15859996500                       # number of overall MSHR miss cycles
system.l2.ReadExReq_mshr_miss_rate::cpu0.data     0.234893                       # mshr miss rate for ReadExReq accesses
system.l2.ReadExReq_mshr_miss_rate::total     0.234893                       # mshr miss rate for ReadExReq accesses
system.l2.ReadSharedReq_mshr_miss_rate::cpu0.data     0.655849                       # mshr miss rate for ReadSharedReq accesses
system.l2.ReadSharedReq_mshr_miss_rate::total     0.655849                       # mshr miss rate for ReadSharedReq accesses
system.l2.demand_mshr_miss_rate::cpu0.data     0.654329                       # mshr miss rate for demand accesses
system.l2.demand_mshr_miss_rate::total       0.654329                       # mshr miss rate for demand accesses
system.l2.overall_mshr_miss_rate::cpu0.data     0.654329                       # mshr miss rate for overall accesses
system.l2.overall_mshr_miss_rate::total      0.654329                       # mshr miss rate for overall accesses
system.l2.ReadExReq_avg_mshr_miss_latency::cpu0.data 93317.427386                       # average ReadExReq mshr miss latency
system.l2.ReadExReq_avg_mshr_miss_latency::total 93317.427386                       # average ReadExReq mshr miss latency
system.l2.ReadSharedReq_avg_mshr_miss_latency::cpu0.data 85320.822312                       # average ReadSharedReq mshr miss latency
system.l2.ReadSharedReq_avg_mshr_miss_latency::total 85320.822312                       # average ReadSharedReq mshr miss latency
system.l2.demand_avg_mshr_miss_latency::cpu0.data 85331.191086                       # average overall mshr miss latency
system.l2.demand_avg_mshr_miss_latency::total 85331.191086                       # average overall mshr miss latency
system.l2.overall_avg_mshr_miss_latency::cpu0.data 85331.191086                       # average overall mshr miss latency
system.l2.overall_avg_mshr_miss_latency::total 85331.191086                       # average overall mshr miss latency
system.membus.snoop_filter.tot_requests        371725                       # Total number of requests made to the snoop filter.
system.membus.snoop_filter.hit_single_requests       185862                       # Number of requests hitting in the snoop filter with a single holder of the requested data.
system.membus.snoop_filter.hit_multi_requests            0                       # Number of requests hitting in the snoop filter with multiple (>1) holders of the requested data.
system.membus.snoop_filter.tot_snoops               0                       # Total number of snoops made to the snoop filter.
system.membus.snoop_filter.hit_single_snoops            0                       # Number of snoops hitting in the snoop filter with a single holder of the requested data.
system.membus.snoop_filter.hit_multi_snoops            0                       # Number of snoops hitting in the snoop filter with multiple (>1) holders of the requested data.
system.membus.pwrStateResidencyTicks::UNDEFINED  15267344125                       # Cumulative time (in ticks) in various power states
system.membus.trans_dist::ReadResp             185621                       # Transaction distribution
system.membus.trans_dist::WritebackDirty          361                       # Transaction distribution
system.membus.trans_dist::CleanEvict           185500                       # Transaction distribution
system.membus.trans_dist::ReadExReq               241                       # Transaction distribution
system.membus.trans_dist::ReadExResp              241                       # Transaction distribution
system.membus.trans_dist::ReadSharedReq        185623                       # Transaction distribution
system.membus.pkt_count_system.l2.mem_side::system.mem_ctrls.port       557587                       # Packet count per connected master and slave (bytes)
system.membus.pkt_count_system.l2.mem_side::total       557587                       # Packet count per connected master and slave (bytes)
system.membus.pkt_count::total                 557587                       # Packet count per connected master and slave (bytes)
system.membus.pkt_size_system.l2.mem_side::system.mem_ctrls.port     11918272                       # Cumulative packet size per connected master and slave (bytes)
system.membus.pkt_size_system.l2.mem_side::total     11918272                       # Cumulative packet size per connected master and slave (bytes)
system.membus.pkt_size::total                11918272                       # Cumulative packet size per connected master and slave (bytes)
system.membus.snoops                                0                       # Total snoops (count)
system.membus.snoopTraffic                          0                       # Total snoop traffic (bytes)
system.membus.snoop_fanout::samples            185864                       # Request fanout histogram
system.membus.snoop_fanout::mean                    0                       # Request fanout histogram
system.membus.snoop_fanout::stdev                   0                       # Request fanout histogram
system.membus.snoop_fanout::underflows              0      0.00%      0.00% # Request fanout histogram
system.membus.snoop_fanout::0                  185864    100.00%    100.00% # Request fanout histogram
system.membus.snoop_fanout::1                       0      0.00%    100.00% # Request fanout histogram
system.membus.snoop_fanout::overflows               0      0.00%    100.00% # Request fanout histogram
system.membus.snoop_fanout::min_value               0                       # Request fanout histogram
system.membus.snoop_fanout::max_value               0                       # Request fanout histogram
system.membus.snoop_fanout::total              185864                       # Request fanout histogram
system.membus.reqLayer8.occupancy           436121500                       # Layer occupancy (ticks)
system.membus.reqLayer8.utilization               2.9                       # Layer utilization (%)
system.membus.respLayer1.occupancy         1007072000                       # Layer occupancy (ticks)
system.membus.respLayer1.utilization              6.6                       # Layer utilization (%)
system.tol2bus.snoop_filter.tot_requests       568104                       # Total number of requests made to the snoop filter.
system.tol2bus.snoop_filter.hit_single_requests       284050                       # Number of requests hitting in the snoop filter with a single holder of the requested data.
system.tol2bus.snoop_filter.hit_multi_requests          366                       # Number of requests hitting in the snoop filter with multiple (>1) holders of the requested data.
system.tol2bus.snoop_filter.tot_snoops              1                       # Total number of snoops made to the snoop filter.
system.tol2bus.snoop_filter.hit_single_snoops            1                       # Number of snoops hitting in the snoop filter with a single holder of the requested data.
system.tol2bus.snoop_filter.hit_multi_snoops            0                       # Number of snoops hitting in the snoop filter with multiple (>1) holders of the requested data.
system.tol2bus.pwrStateResidencyTicks::UNDEFINED  15267344125                       # Cumulative time (in ticks) in various power states
system.tol2bus.trans_dist::ReadResp            283025                       # Transaction distribution
system.tol2bus.trans_dist::WritebackDirty         3193                       # Transaction distribution
system.tol2bus.trans_dist::CleanEvict          466720                       # Transaction distribution
system.tol2bus.trans_dist::ReadExReq             1026                       # Transaction distribution
system.tol2bus.trans_dist::ReadExResp            1026                       # Transaction distribution
system.tol2bus.trans_dist::ReadSharedReq       283027                       # Transaction distribution
system.tol2bus.pkt_count_system.cpu0.dcache.mem_side::system.l2.cpu_side       852155                       # Packet count per connected master and slave (bytes)
system.tol2bus.pkt_count::total                852155                       # Packet count per connected master and slave (bytes)
system.tol2bus.pkt_size_system.cpu0.dcache.mem_side::system.l2.cpu_side     18360512                       # Cumulative packet size per connected master and slave (bytes)
system.tol2bus.pkt_size::total               18360512                       # Cumulative packet size per connected master and slave (bytes)
system.tol2bus.snoops                          185862                       # Total snoops (count)
system.tol2bus.snoopTraffic                     23104                       # Total snoop traffic (bytes)
system.tol2bus.snoop_fanout::samples           469915                       # Request fanout histogram
system.tol2bus.snoop_fanout::mean            0.000779                       # Request fanout histogram
system.tol2bus.snoop_fanout::stdev           0.027897                       # Request fanout histogram
system.tol2bus.snoop_fanout::underflows             0      0.00%      0.00% # Request fanout histogram
system.tol2bus.snoop_fanout::0                 469549     99.92%     99.92% # Request fanout histogram
system.tol2bus.snoop_fanout::1                    366      0.08%    100.00% # Request fanout histogram
system.tol2bus.snoop_fanout::2                      0      0.00%    100.00% # Request fanout histogram
system.tol2bus.snoop_fanout::3                      0      0.00%    100.00% # Request fanout histogram
system.tol2bus.snoop_fanout::4                      0      0.00%    100.00% # Request fanout histogram
system.tol2bus.snoop_fanout::5                      0      0.00%    100.00% # Request fanout histogram
system.tol2bus.snoop_fanout::6                      0      0.00%    100.00% # Request fanout histogram
system.tol2bus.snoop_fanout::7                      0      0.00%    100.00% # Request fanout histogram
system.tol2bus.snoop_fanout::8                      0      0.00%    100.00% # Request fanout histogram
system.tol2bus.snoop_fanout::9                      0      0.00%    100.00% # Request fanout histogram
system.tol2bus.snoop_fanout::10                     0      0.00%    100.00% # Request fanout histogram
system.tol2bus.snoop_fanout::11                     0      0.00%    100.00% # Request fanout histogram
system.tol2bus.snoop_fanout::12                     0      0.00%    100.00% # Request fanout histogram
system.tol2bus.snoop_fanout::13                     0      0.00%    100.00% # Request fanout histogram
system.tol2bus.snoop_fanout::14                     0      0.00%    100.00% # Request fanout histogram
system.tol2bus.snoop_fanout::15                     0      0.00%    100.00% # Request fanout histogram
system.tol2bus.snoop_fanout::16                     0      0.00%    100.00% # Request fanout histogram
system.tol2bus.snoop_fanout::overflows              0      0.00%    100.00% # Request fanout histogram
system.tol2bus.snoop_fanout::min_value              0                       # Request fanout histogram
system.tol2bus.snoop_fanout::max_value              1                       # Request fanout histogram
system.tol2bus.snoop_fanout::total             469915                       # Request fanout histogram
system.tol2bus.reqLayer0.occupancy          286884000                       # Layer occupancy (ticks)
system.tol2bus.reqLayer0.utilization              1.9                       # Layer utilization (%)
system.tol2bus.respLayer1.occupancy         426076500                       # Layer occupancy (ticks)
system.tol2bus.respLayer1.utilization             2.8                       # Layer utilization (%)

---------- End Simulation Statistics   ----------
